5ST3
  PyMOL2.5          3D                             0

  9  9  0  0  0  0  0  0  0  0999 V2000
   -6.2810  -13.7001    2.2619 N   0  0  0  0  0  0  0  0  0  0  0  0
   -9.1241  -12.3710    3.2543 C   0  0  0  0  0  0  0  0  0  0  0  0
  -11.1629  -13.0468    2.0908 O   0  0  0  0  0  0  0  0  0  0  0  0
  -10.6596  -12.2652    3.1354 C   0  0  0  0  0  0  0  0  0  0  0  0
   -6.5308  -11.5754    1.5640 O   0  0  0  0  0  0  0  0  0  0  0  0
  -10.5161  -14.2920    1.9726 C   0  0  0  0  0  0  0  0  0  0  0  0
   -9.0278  -14.1680    1.5744 C   0  0  0  0  0  0  0  0  0  0  0  0
   -8.5607  -12.7546    1.9003 C   0  0  0  0  0  0  0  0  0  0  0  0
   -7.0589  -12.6281    1.8925 C   0  0  0  0  0  0  0  0  0  0  0  0
  2  4  1  0  0  0  0
  3  4  1  0  0  0  0
  5  9  2  0  0  0  0
  3  6  1  0  0  0  0
  6  7  1  0  0  0  0
  2  8  1  0  0  0  0
  7  8  1  0  0  0  0
  1  9  1  0  0  0  0
  8  9  1  0  0  0  0
M  END
$$$$
