5STH
  PyMOL2.5          3D                             0

 20 20  0  0  0  0  0  0  0  0999 V2000
   39.1300   -4.5104   56.2901 N   0  0  0  0  0  0  0  0  0  0  0  0
   40.9527   -5.1622   55.2262 C   0  0  0  0  0  0  0  0  0  0  0  0
   41.2255   -3.8733   57.4311 O   0  0  0  0  0  0  0  0  0  0  0  0
   41.7930   -5.0152   51.4242 Cl  0  0  0  0  0  0  0  0  0  0  0  0
   41.0708   -6.5040   54.7748 C   0  0  0  0  0  0  0  0  0  0  0  0
   40.3133   -6.2851   57.2839 O   0  0  0  0  0  0  0  0  0  0  0  0
   41.1905   -4.0776   54.0406 S   0  0  0  0  0  0  0  0  0  0  0  0
   41.3785   -6.5948   53.4958 C   0  0  0  0  0  0  0  0  0  0  0  0
   41.4631   -5.2625   52.9743 C   0  0  0  0  0  0  0  0  0  0  0  0
   40.5555   -4.9255   56.7638 S   0  0  0  0  0  0  0  0  0  0  0  0
   19.8323    1.4232   24.0121 N   0  0  0  0  0  0  0  0  0  0  0  0
   21.5307    3.2303   24.8058 C   0  0  0  0  0  0  0  0  0  0  0  0
   21.3375    2.5219   22.4413 O   0  0  0  0  0  0  0  0  0  0  0  0
   24.0246    4.1661   27.8107 Cl  0  0  0  0  0  0  0  0  0  0  0  0
   21.7539    4.5698   24.8619 C   0  0  0  0  0  0  0  0  0  0  0  0
   19.5857    3.7513   23.3838 O   0  0  0  0  0  0  0  0  0  0  0  0
   22.3680    2.4508   26.0564 S   0  0  0  0  0  0  0  0  0  0  0  0
   22.5669    4.9383   25.8625 C   0  0  0  0  0  0  0  0  0  0  0  0
   22.9835    3.8882   26.5851 C   0  0  0  0  0  0  0  0  0  0  0  0
   20.5497    2.8091   23.5540 S   0  0  0  0  0  0  0  0  0  0  0  0
  2 10  1  0  0  0  0
  4  9  1  0  0  0  0
  2  5  4  0  0  0  0
  2  7  4  0  0  0  0
  5  8  4  0  0  0  0
  8  9  4  0  0  0  0
  7  9  4  0  0  0  0
  1 10  1  0  0  0  0
  3 10  2  0  0  0  0
  6 10  2  0  0  0  0
 12 20  1  0  0  0  0
 14 19  1  0  0  0  0
 12 15  4  0  0  0  0
 12 17  4  0  0  0  0
 15 18  4  0  0  0  0
 18 19  4  0  0  0  0
 17 19  4  0  0  0  0
 11 20  1  0  0  0  0
 13 20  2  0  0  0  0
 16 20  2  0  0  0  0
M  END
$$$$
