5STI
  PyMOL2.5          3D                             0

 22 22  0  0  0  0  0  0  0  0999 V2000
   47.9707   18.2934   54.7181 N   0  3  0  0  0  0  0  0  0  0  0  0
   54.0278   18.7022   52.9394 C   0  0  0  0  0  0  0  0  0  0  0  0
   52.2849   16.5986   52.9747 O   0  0  0  0  0  0  0  0  0  0  0  0
   52.6489   18.8839   53.4341 C   0  0  0  0  0  0  0  0  0  0  0  0
   52.2048   20.1283   53.9096 C   0  0  0  0  0  0  0  0  0  0  0  0
   50.9371   20.2895   54.5349 C   0  0  0  0  0  0  0  0  0  0  0  0
   50.1438   19.2187   54.6144 C   0  0  0  0  0  0  0  0  0  0  0  0
   50.5109   17.9324   54.1415 C   0  0  0  0  0  0  0  0  0  0  0  0
   51.8051   17.7733   53.5205 C   0  0  0  0  0  0  0  0  0  0  0  0
   51.3762   15.7081   52.4931 C   0  0  0  0  0  0  0  0  0  0  0  0
   48.8226   19.4705   55.1296 C   0  0  0  0  0  0  0  0  0  0  0  0
   53.0830   -1.0464   39.2945 N   0  3  0  0  0  0  0  0  0  0  0  0
   55.9564    3.6937   42.2385 C   0  0  0  0  0  0  0  0  0  0  0  0
   54.3466    1.5329   43.2545 O   0  0  0  0  0  0  0  0  0  0  0  0
   55.6049    2.4739   41.4600 C   0  0  0  0  0  0  0  0  0  0  0  0
   56.0450    2.3293   40.1427 C   0  0  0  0  0  0  0  0  0  0  0  0
   55.7267    1.2317   39.4202 C   0  0  0  0  0  0  0  0  0  0  0  0
   54.9655    0.2292   39.9673 C   0  0  0  0  0  0  0  0  0  0  0  0
   54.5133    0.3210   41.2549 C   0  0  0  0  0  0  0  0  0  0  0  0
   54.8232    1.4339   42.0020 C   0  0  0  0  0  0  0  0  0  0  0  0
   53.7862    0.3664   43.7790 C   0  0  0  0  0  0  0  0  0  0  0  0
   54.6148   -0.9731   39.1856 C   0  0  0  0  0  0  0  0  0  0  0  0
  2  4  1  0  0  0  0
  4  5  4  0  0  0  0
  4  9  4  0  0  0  0
  5  6  4  0  0  0  0
  6  7  4  0  0  0  0
  7  8  4  0  0  0  0
  8  9  4  0  0  0  0
  3  9  1  0  0  0  0
  3 10  1  0  0  0  0
  1 11  1  0  0  0  0
  7 11  1  0  0  0  0
 13 15  1  0  0  0  0
 15 16  4  0  0  0  0
 15 20  4  0  0  0  0
 16 17  4  0  0  0  0
 17 18  4  0  0  0  0
 18 19  4  0  0  0  0
 19 20  4  0  0  0  0
 14 20  1  0  0  0  0
 14 21  1  0  0  0  0
 12 22  1  0  0  0  0
 18 22  1  0  0  0  0
M  END
$$$$
