5STR
  PyMOL2.5          3D                             0

 30 32  0  0  0  0  0  0  0  0999 V2000
   12.7121  -30.4952   22.5283 N   0  0  0  0  0  0  0  0  0  0  0  0
   13.5543  -28.1376   18.3468 C   0  0  0  0  0  0  0  0  0  0  0  0
   11.7862  -29.6010   24.3868 O   0  0  0  0  0  0  0  0  0  0  0  0
   14.6782  -28.1116   19.1053 C   0  0  0  0  0  0  0  0  0  0  0  0
   13.4869  -27.6342   23.9689 N   0  3  0  0  0  0  0  0  0  0  0  0
   14.7721  -28.8411   20.2307 C   0  0  0  0  0  0  0  0  0  0  0  0
   13.7372  -29.6101   20.5974 C   0  0  0  0  0  0  0  0  0  0  0  0
   12.5965  -29.6195   19.8917 C   0  0  0  0  0  0  0  0  0  0  0  0
   12.5116  -28.9036   18.7672 C   0  0  0  0  0  0  0  0  0  0  0  0
   13.8605  -30.6050   21.6483 C   0  0  0  0  0  0  0  0  0  0  0  0
   15.2540  -30.9341   22.2537 C   0  0  0  0  0  0  0  0  0  0  0  0
   15.4369  -31.9405   21.1481 C   0  0  0  0  0  0  0  0  0  0  0  0
   13.9446  -32.0329   21.0915 C   0  0  0  0  0  0  0  0  0  0  0  0
   12.6916  -29.7554   23.5890 C   0  0  0  0  0  0  0  0  0  0  0  0
   13.9367  -29.0038   23.8618 C   0  0  0  0  0  0  0  0  0  0  0  0
    5.0098   13.1818  -10.8997 N   0  0  0  0  0  0  0  0  0  0  0  0
    7.9127    9.9629  -13.1269 C   0  0  0  0  0  0  0  0  0  0  0  0
    4.3664   11.4978   -9.4903 O   0  0  0  0  0  0  0  0  0  0  0  0
    6.7114   10.5769  -13.4260 C   0  0  0  0  0  0  0  0  0  0  0  0
    1.7604   11.8248   -9.7533 N   0  3  0  0  0  0  0  0  0  0  0  0
    6.2264   11.5836  -12.6112 C   0  0  0  0  0  0  0  0  0  0  0  0
    6.9399   11.9744  -11.5011 C   0  0  0  0  0  0  0  0  0  0  0  0
    8.1405   11.3653  -11.2005 C   0  0  0  0  0  0  0  0  0  0  0  0
    8.6208   10.3652  -12.0079 C   0  0  0  0  0  0  0  0  0  0  0  0
    6.4256   13.0230  -10.6075 C   0  0  0  0  0  0  0  0  0  0  0  0
    6.7196   12.7640   -9.0985 C   0  0  0  0  0  0  0  0  0  0  0  0
    7.3908   14.1407   -8.9946 C   0  0  0  0  0  0  0  0  0  0  0  0
    7.1777   14.3650  -10.4981 C   0  0  0  0  0  0  0  0  0  0  0  0
    4.1192   12.3804  -10.3010 C   0  0  0  0  0  0  0  0  0  0  0  0
    2.6369   12.6262  -10.6847 C   0  0  0  0  0  0  0  0  0  0  0  0
  3 14  2  0  0  0  0
  2  4  4  0  0  0  0
  4  6  4  0  0  0  0
  5 15  1  0  0  0  0
  6  7  4  0  0  0  0
  7  8  4  0  0  0  0
  2  9  4  0  0  0  0
  8  9  4  0  0  0  0
  1 10  1  0  0  0  0
  7 10  1  0  0  0  0
 10 11  1  0  0  0  0
 11 12  1  0  0  0  0
 12 13  1  0  0  0  0
 10 13  1  0  0  0  0
  1 14  1  0  0  0  0
 14 15  1  0  0  0  0
 18 29  2  0  0  0  0
 17 19  4  0  0  0  0
 19 21  4  0  0  0  0
 20 30  1  0  0  0  0
 21 22  4  0  0  0  0
 22 23  4  0  0  0  0
 17 24  4  0  0  0  0
 23 24  4  0  0  0  0
 16 25  1  0  0  0  0
 22 25  1  0  0  0  0
 25 26  1  0  0  0  0
 26 27  1  0  0  0  0
 27 28  1  0  0  0  0
 25 28  1  0  0  0  0
 16 29  1  0  0  0  0
 29 30  1  0  0  0  0
M  END
$$$$
