5SU0
  PyMOL2.5          3D                             0

 11 11  0  0  0  0  0  0  0  0999 V2000
    6.3636   59.0499  -16.7503 N   0  0  0  0  0  0  0  0  0  0  0  0
    4.0863   60.4626  -13.7161 C   0  0  0  0  0  0  0  0  0  0  0  0
    5.0129   59.6101  -14.5541 C   0  0  0  0  0  0  0  0  0  0  0  0
    4.3102   58.7115  -15.5713 C   0  0  0  0  0  0  0  0  0  0  0  0
    5.4026   58.0156  -16.3764 C   0  0  0  0  0  0  0  0  0  0  0  0
    3.4926   57.7336  -14.7576 C   0  0  0  0  0  0  0  0  0  0  0  0
    3.8472   57.4521  -13.4450 C   0  0  0  0  0  0  0  0  0  0  0  0
    3.0420   56.6573  -12.6481 C   0  0  0  0  0  0  0  0  0  0  0  0
    1.8816   56.1267  -13.1533 C   0  0  0  0  0  0  0  0  0  0  0  0
    1.5280   56.3768  -14.4644 C   0  0  0  0  0  0  0  0  0  0  0  0
    2.3272   57.1779  -15.2591 C   0  0  0  0  0  0  0  0  0  0  0  0
  2  3  1  0  0  0  0
  3  4  1  0  0  0  0
  1  5  1  0  0  0  0
  4  5  1  0  0  0  0
  4  6  1  0  0  0  0
  6  7  4  0  0  0  0
  7  8  4  0  0  0  0
  8  9  4  0  0  0  0
  9 10  4  0  0  0  0
 10 11  4  0  0  0  0
  6 11  4  0  0  0  0
M  END
$$$$
