7FK7
  PyMOL2.5          3D                             0

 17 18  0  0  0  0  0  0  0  0999 V2000
   47.8881    3.6931   40.1781 N   0  0  0  0  0  0  0  0  0  0  0  0
   48.1864    1.9891   36.7363 C   0  0  0  0  0  0  0  0  0  0  0  0
   49.4234    4.0234   42.1539 O   0  0  0  0  0  0  0  0  0  0  0  0
   48.6698    2.8412   37.8982 C   0  0  0  0  0  0  0  0  0  0  0  0
   45.3874    1.8171   43.1624 N   0  0  0  0  0  0  0  0  0  0  0  0
   49.1839    1.8381   41.1645 O   0  0  0  0  0  0  0  0  0  0  0  0
   48.8075    4.2794   37.4170 C   0  0  0  0  0  0  0  0  0  0  0  0
   45.6572    2.9673   43.8836 N   0  0  0  0  0  0  0  0  0  0  0  0
   47.6193    2.8234   39.0217 C   0  0  0  0  0  0  0  0  0  0  0  0
   47.7942    5.1229   39.9483 C   0  0  0  0  0  0  0  0  0  0  0  0
   48.7570    6.1161   40.5789 C   0  0  0  0  0  0  0  0  0  0  0  0
   47.3153    6.0934   41.0053 C   0  0  0  0  0  0  0  0  0  0  0  0
   47.3193    2.7957   42.4300 C   0  0  0  0  0  0  0  0  0  0  0  0
   46.3925    1.7083   42.2830 C   0  0  0  0  0  0  0  0  0  0  0  0
   46.8036    3.5705   43.4746 C   0  0  0  0  0  0  0  0  0  0  0  0
   44.7574    3.4269   44.9440 C   0  0  0  0  0  0  0  0  0  0  0  0
   48.6151    3.0628   41.5347 S   0  0  0  0  0  0  0  0  0  0  0  0
  2  4  1  0  0  0  0
  4  7  1  0  0  0  0
  4  9  1  0  0  0  0
  5  8  4  0  0  0  0
  5 14  4  0  0  0  0
  6 17  2  0  0  0  0
  8 15  4  0  0  0  0
  8 16  1  0  0  0  0
  1  9  1  0  0  0  0
  1 10  1  0  0  0  0
 10 11  1  0  0  0  0
 11 12  1  0  0  0  0
 10 12  1  0  0  0  0
 13 14  4  0  0  0  0
 13 15  4  0  0  0  0
 13 17  1  0  0  0  0
  1 17  1  0  0  0  0
  3 17  2  0  0  0  0
M  END
$$$$
