7FK9
  PyMOL2.5          3D                             0

 14 14  0  0  0  0  0  0  0  0999 V2000
   32.2225   22.0747  -25.0216 N   0  0  0  0  0  0  0  0  0  0  0  0
   32.6143   26.3822  -23.7858 C   0  0  0  0  0  0  0  0  0  0  0  0
   32.3880   23.1553  -26.7934 O   0  0  0  0  0  0  0  0  0  0  0  0
   32.6877   25.0092  -24.0428 C   0  0  0  0  0  0  0  0  0  0  0  0
   33.1994   21.9647  -21.6817 N   0  0  0  0  0  0  0  0  0  0  0  0
   32.2395   24.6615  -25.1940 C   0  0  0  0  0  0  0  0  0  0  0  0
   34.8129   19.9768  -24.3818 N   0  0  0  0  0  0  0  0  0  0  0  0
   32.0771   27.0146  -24.8132 C   0  0  0  0  0  0  0  0  0  0  0  0
   32.2707   23.2977  -25.7497 C   0  0  0  0  0  0  0  0  0  0  0  0
   31.6040   22.3396  -23.7889 C   0  0  0  0  0  0  0  0  0  0  0  0
   32.4312   22.3010  -22.6364 C   0  0  0  0  0  0  0  0  0  0  0  0
   32.9751   20.7438  -25.5706 C   0  0  0  0  0  0  0  0  0  0  0  0
   34.0248   20.3058  -24.9388 C   0  0  0  0  0  0  0  0  0  0  0  0
   31.7268   26.0308  -25.9710 S   0  0  0  0  0  0  0  0  0  0  0  0
  2  4  4  0  0  0  0
  4  6  4  0  0  0  0
  5 11  2  0  0  0  0
  6 14  4  0  0  0  0
  2  8  4  0  0  0  0
  8 14  4  0  0  0  0
  1  9  1  0  0  0  0
  3  9  2  0  0  0  0
  6  9  1  0  0  0  0
  1 10  1  0  0  0  0
 10 11  1  0  0  0  0
  1 12  1  0  0  0  0
 12 13  1  0  0  0  0
  7 13  3  0  0  0  0
M  END
$$$$
