7FKF
  PyMOL2.5          3D                             0

 14 14  0  0  0  0  0  0  0  0999 V2000
   54.7683  -26.7122   -5.7292 N   0  0  0  0  0  0  0  0  0  0  0  0
   56.1039  -26.3665   -5.2286 C   0  0  0  0  0  0  0  0  0  0  0  0
   52.9309  -26.1921   -7.2044 O   0  0  0  0  0  0  0  0  0  0  0  0
   54.3048  -28.0260   -5.3437 C   0  0  0  0  0  0  0  0  0  0  0  0
   53.4403  -25.0019   -5.2156 N   0  0  0  0  0  0  0  0  0  0  0  0
   54.7970  -24.8272   -7.1514 O   0  0  0  0  0  0  0  0  0  0  0  0
   52.2178  -24.9712   -4.7353 C   0  0  0  0  0  0  0  0  0  0  0  0
   51.0847  -25.2455   -5.4958 C   0  0  0  0  0  0  0  0  0  0  0  0
   49.8890  -25.3395   -4.7942 C   0  0  0  0  0  0  0  0  0  0  0  0
   49.8218  -25.2092   -3.3958 C   0  0  0  0  0  0  0  0  0  0  0  0
   50.9479  -24.9503   -2.6495 C   0  0  0  0  0  0  0  0  0  0  0  0
   52.1138  -24.8034   -3.3272 C   0  0  0  0  0  0  0  0  0  0  0  0
   53.7126  -24.1998   -2.4222 Br  0  0  0  0  0  0  0  0  0  0  0  0
   53.9431  -25.6499   -6.5540 S   0  0  0  0  0  0  0  0  0  0  0  0
  1  2  1  0  0  0  0
  1  4  1  0  0  0  0
  5  7  1  0  0  0  0
  5 14  1  0  0  0  0
  6 14  2  0  0  0  0
  7  8  4  0  0  0  0
  8  9  4  0  0  0  0
  9 10  4  0  0  0  0
 10 11  4  0  0  0  0
  7 12  4  0  0  0  0
 11 12  4  0  0  0  0
 12 13  1  0  0  0  0
  1 14  1  0  0  0  0
  3 14  2  0  0  0  0
M  END
$$$$
