7FKH
  PyMOL2.5          3D                             0

 15 16  0  0  0  0  0  0  0  0999 V2000
   61.7305    0.4421   26.6028 N   0  0  0  0  0  0  0  0  0  0  0  0
   62.7878   -2.0191   24.1237 C   0  0  0  0  0  0  0  0  0  0  0  0
   63.3279   -4.9424   27.3054 O   0  0  0  0  0  0  0  0  0  0  0  0
   63.3576   -2.9874   24.9339 C   0  0  0  0  0  0  0  0  0  0  0  0
   65.1711   -3.6736   27.7531 N   0  0  0  0  0  0  0  0  0  0  0  0
   67.7105   -3.2756   28.9535 O   0  0  0  0  0  0  0  0  0  0  0  0
   63.3730   -2.8018   26.2970 C   0  0  0  0  0  0  0  0  0  0  0  0
   62.8514   -1.6726   26.8815 C   0  0  0  0  0  0  0  0  0  0  0  0
   62.2724   -0.6962   26.0575 C   0  0  0  0  0  0  0  0  0  0  0  0
   62.2419   -0.8796   24.6697 C   0  0  0  0  0  0  0  0  0  0  0  0
   63.9305   -3.8914   27.1462 C   0  0  0  0  0  0  0  0  0  0  0  0
   65.7699   -4.6896   28.6338 C   0  0  0  0  0  0  0  0  0  0  0  0
   67.3170   -4.5872   28.6448 C   0  0  0  0  0  0  0  0  0  0  0  0
   67.1428   -2.2564   28.1531 C   0  0  0  0  0  0  0  0  0  0  0  0
   66.1613   -2.7993   27.0998 C   0  0  0  0  0  0  0  0  0  0  0  0
  2  4  4  0  0  0  0
  4  7  4  0  0  0  0
  5 11  1  0  0  0  0
  5 12  1  0  0  0  0
  5 15  1  0  0  0  0
  7  8  4  0  0  0  0
  1  9  1  0  0  0  0
  8  9  4  0  0  0  0
  2 10  4  0  0  0  0
  9 10  4  0  0  0  0
  3 11  2  0  0  0  0
  7 11  1  0  0  0  0
 12 13  1  0  0  0  0
  6 13  1  0  0  0  0
  6 14  1  0  0  0  0
 14 15  1  0  0  0  0
M  END
$$$$
