7FKM
  PyMOL2.5          3D                             0

 17 17  0  0  0  0  0  0  0  0999 V2000
   79.7520   41.7753   22.1755 N   0  0  0  0  0  0  0  0  0  0  0  0
   83.3325   39.6241   21.3259 C   0  0  0  0  0  0  0  0  0  0  0  0
   83.2641   41.0222   21.3844 O   0  0  0  0  0  0  0  0  0  0  0  0
   74.9301   43.2900   21.5960 Cl  0  0  0  0  0  0  0  0  0  0  0  0
   82.0806   41.6181   21.5420 C   0  0  0  0  0  0  0  0  0  0  0  0
   82.1571   42.8178   21.5984 O   0  0  0  0  0  0  0  0  0  0  0  0
   80.7712   40.8609   21.6549 C   0  0  0  0  0  0  0  0  0  0  0  0
   75.8379   44.0151   19.0052 O   0  0  0  0  0  0  0  0  0  0  0  0
   78.7478   42.3081   21.3543 C   0  0  0  0  0  0  0  0  0  0  0  0
   79.0065   42.6847   20.0437 C   0  0  0  0  0  0  0  0  0  0  0  0
   78.0129   43.2331   19.2804 C   0  0  0  0  0  0  0  0  0  0  0  0
   76.7344   43.4104   19.8018 C   0  0  0  0  0  0  0  0  0  0  0  0
   76.4738   43.0405   21.0661 C   0  0  0  0  0  0  0  0  0  0  0  0
   77.4187   42.4901   21.9010 C   0  0  0  0  0  0  0  0  0  0  0  0
   76.0076   43.7545   17.6457 C   0  0  0  0  0  0  0  0  0  0  0  0
   75.9003   44.8866   17.0406 F   0  0  0  0  0  0  0  0  0  0  0  0
   74.8634   43.3100   17.4159 F   0  0  0  0  0  0  0  0  0  0  0  0
  2  3  1  0  0  0  0
  3  5  1  0  0  0  0
  5  7  1  0  0  0  0
  5  6  2  0  0  0  0
  1  7  1  0  0  0  0
  1  9  1  0  0  0  0
  9 10  4  0  0  0  0
 10 11  4  0  0  0  0
 11 12  4  0  0  0  0
  8 12  1  0  0  0  0
  4 13  1  0  0  0  0
 12 13  4  0  0  0  0
 13 14  4  0  0  0  0
  9 14  4  0  0  0  0
  8 15  1  0  0  0  0
 15 16  1  0  0  0  0
 15 17  1  0  0  0  0
M  END
$$$$
