7FKT
  PyMOL2.5          3D                             0

 68 68  0  0  0  0  0  0  0  0999 V2000
   29.1072  -13.9133   37.8530 N   0  0  0  0  0  0  0  0  0  0  0  0
   28.0341  -14.6663   37.2227 C   0  0  0  0  0  0  0  0  0  0  0  0
   29.7723  -12.2935   39.1651 O   0  0  0  0  0  0  0  0  0  0  0  0
   29.2018  -11.3666   32.9732 Cl  0  0  0  0  0  0  0  0  0  0  0  0
   28.8863  -12.8341   38.6172 C   0  0  0  0  0  0  0  0  0  0  0  0
   26.7581  -12.2943   37.5628 N   0  0  0  0  0  0  0  0  0  0  0  0
   24.3223  -12.3015   37.4466 O   0  0  0  0  0  0  0  0  0  0  0  0
   27.4953  -12.3520   38.8119 C   0  0  0  0  0  0  0  0  0  0  0  0
   25.4519  -14.0610   38.4867 O   0  0  0  0  0  0  0  0  0  0  0  0
   27.3307  -11.4186   36.5119 C   0  0  0  0  0  0  0  0  0  0  0  0
   27.2987  -10.0499   36.7500 C   0  0  0  0  0  0  0  0  0  0  0  0
   27.8216   -9.1708   35.8512 C   0  0  0  0  0  0  0  0  0  0  0  0
   28.3974   -9.6032   34.6934 C   0  0  0  0  0  0  0  0  0  0  0  0
   28.4365  -10.9408   34.4504 C   0  0  0  0  0  0  0  0  0  0  0  0
   27.9186  -11.8885   35.3126 C   0  0  0  0  0  0  0  0  0  0  0  0
   25.5322  -13.9575   36.0439 C   0  0  0  0  0  0  0  0  0  0  0  0
   25.3853  -13.1625   37.4765 S   0  0  0  0  0  0  0  0  0  0  0  0
   28.2841   25.7951  -35.4922 N   0  0  0  0  0  0  0  0  0  0  0  0
   27.1573   26.5139  -35.9773 C   0  0  0  0  0  0  0  0  0  0  0  0
   29.6105   27.5472  -35.9111 O   0  0  0  0  0  0  0  0  0  0  0  0
   32.4954   30.0673  -32.4525 Cl  0  0  0  0  0  0  0  0  0  0  0  0
   29.4944   26.4215  -35.5082 C   0  0  0  0  0  0  0  0  0  0  0  0
   31.8193   26.1420  -35.6196 N   0  0  0  0  0  0  0  0  0  0  0  0
   31.8512   27.0716  -37.7214 O   0  0  0  0  0  0  0  0  0  0  0  0
   30.6802   25.6536  -34.9644 C   0  0  0  0  0  0  0  0  0  0  0  0
   31.2766   24.8308  -37.3925 O   0  0  0  0  0  0  0  0  0  0  0  0
   32.6563   26.9212  -34.8557 C   0  0  0  0  0  0  0  0  0  0  0  0
   34.0536   26.5618  -34.5052 C   0  0  0  0  0  0  0  0  0  0  0  0
   34.7749   27.3361  -33.6443 C   0  0  0  0  0  0  0  0  0  0  0  0
   34.2181   28.4275  -33.1114 C   0  0  0  0  0  0  0  0  0  0  0  0
   32.9629   28.7710  -33.3996 C   0  0  0  0  0  0  0  0  0  0  0  0
   32.1043   28.0838  -34.3073 C   0  0  0  0  0  0  0  0  0  0  0  0
   33.5555   25.4817  -37.1976 C   0  0  0  0  0  0  0  0  0  0  0  0
   32.0435   25.8791  -37.1178 S   0  0  0  0  0  0  0  0  0  0  0  0
   28.1751   46.5592  -15.9448 N   0  0  0  0  0  0  0  0  0  0  0  0
   28.7489   47.8863  -15.7925 C   0  0  0  0  0  0  0  0  0  0  0  0
   28.6047   44.4296  -16.2649 O   0  0  0  0  0  0  0  0  0  0  0  0
   33.0381   40.5217  -18.4684 Cl  0  0  0  0  0  0  0  0  0  0  0  0
   29.0068   45.5303  -16.1579 C   0  0  0  0  0  0  0  0  0  0  0  0
   31.2572   44.6710  -15.9898 N   0  0  0  0  0  0  0  0  0  0  0  0
   31.5624   43.2319  -14.0954 O   0  0  0  0  0  0  0  0  0  0  0  0
   30.4727   45.8563  -16.2215 C   0  0  0  0  0  0  0  0  0  0  0  0
   32.1586   45.4705  -13.8090 O   0  0  0  0  0  0  0  0  0  0  0  0
   31.2481   43.7726  -17.1112 C   0  0  0  0  0  0  0  0  0  0  0  0
   30.4540   44.0791  -18.1928 C   0  0  0  0  0  0  0  0  0  0  0  0
   30.4569   43.3095  -19.3144 C   0  0  0  0  0  0  0  0  0  0  0  0
   31.2634   42.2035  -19.3763 C   0  0  0  0  0  0  0  0  0  0  0  0
   32.0507   41.8897  -18.3038 C   0  0  0  0  0  0  0  0  0  0  0  0
   32.0724   42.6386  -17.1493 C   0  0  0  0  0  0  0  0  0  0  0  0
   33.6313   44.3058  -15.2075 C   0  0  0  0  0  0  0  0  0  0  0  0
   32.1071   44.3982  -14.6042 S   0  0  0  0  0  0  0  0  0  0  0  0
   21.3846   23.5001    0.1884 N   0  0  0  0  0  0  0  0  0  0  0  0
   21.3082   22.4142    1.1196 C   0  0  0  0  0  0  0  0  0  0  0  0
   21.8195   22.1176   -1.4529 O   0  0  0  0  0  0  0  0  0  0  0  0
   26.9282   26.2100   -1.8547 Cl  0  0  0  0  0  0  0  0  0  0  0  0
   21.6419   23.2331   -1.0741 C   0  0  0  0  0  0  0  0  0  0  0  0
   22.0820   25.6551   -1.4719 N   0  0  0  0  0  0  0  0  0  0  0  0
   21.3529   27.8634   -0.8755 O   0  0  0  0  0  0  0  0  0  0  0  0
   21.7120   24.3697   -2.0334 C   0  0  0  0  0  0  0  0  0  0  0  0
   20.0284   26.5383   -2.2476 O   0  0  0  0  0  0  0  0  0  0  0  0
   23.2822   25.7747   -0.6862 C   0  0  0  0  0  0  0  0  0  0  0  0
   23.3427   25.9558    0.6699 C   0  0  0  0  0  0  0  0  0  0  0  0
   24.5619   26.2381    1.2964 C   0  0  0  0  0  0  0  0  0  0  0  0
   25.7219   26.3176    0.5540 C   0  0  0  0  0  0  0  0  0  0  0  0
   25.6003   26.1072   -0.8039 C   0  0  0  0  0  0  0  0  0  0  0  0
   24.4265   25.8347   -1.4125 C   0  0  0  0  0  0  0  0  0  0  0  0
   21.9443   27.4551   -3.2361 C   0  0  0  0  0  0  0  0  0  0  0  0
   21.2264   26.9409   -1.8807 S   0  0  0  0  0  0  0  0  0  0  0  0
  1  2  1  0  0  0  0
  1  5  1  0  0  0  0
  3  5  2  0  0  0  0
  5  8  1  0  0  0  0
  6  8  1  0  0  0  0
  6 10  1  0  0  0  0
  6 17  1  0  0  0  0
  7 17  2  0  0  0  0
  9 17  2  0  0  0  0
 10 11  4  0  0  0  0
 11 12  4  0  0  0  0
 12 13  4  0  0  0  0
  4 14  1  0  0  0  0
 13 14  4  0  0  0  0
 14 15  4  0  0  0  0
 10 15  4  0  0  0  0
 16 17  1  0  0  0  0
 18 19  1  0  0  0  0
 18 22  1  0  0  0  0
 20 22  2  0  0  0  0
 22 25  1  0  0  0  0
 23 25  1  0  0  0  0
 23 27  1  0  0  0  0
 23 34  1  0  0  0  0
 24 34  2  0  0  0  0
 26 34  2  0  0  0  0
 27 28  4  0  0  0  0
 28 29  4  0  0  0  0
 29 30  4  0  0  0  0
 21 31  1  0  0  0  0
 30 31  4  0  0  0  0
 31 32  4  0  0  0  0
 27 32  4  0  0  0  0
 33 34  1  0  0  0  0
 35 36  1  0  0  0  0
 35 39  1  0  0  0  0
 37 39  2  0  0  0  0
 39 42  1  0  0  0  0
 40 42  1  0  0  0  0
 40 44  1  0  0  0  0
 40 51  1  0  0  0  0
 41 51  2  0  0  0  0
 43 51  2  0  0  0  0
 44 45  4  0  0  0  0
 45 46  4  0  0  0  0
 46 47  4  0  0  0  0
 38 48  1  0  0  0  0
 47 48  4  0  0  0  0
 48 49  4  0  0  0  0
 44 49  4  0  0  0  0
 50 51  1  0  0  0  0
 52 53  1  0  0  0  0
 52 56  1  0  0  0  0
 54 56  2  0  0  0  0
 56 59  1  0  0  0  0
 57 59  1  0  0  0  0
 57 61  1  0  0  0  0
 57 68  1  0  0  0  0
 58 68  2  0  0  0  0
 60 68  2  0  0  0  0
 61 62  4  0  0  0  0
 62 63  4  0  0  0  0
 63 64  4  0  0  0  0
 55 65  1  0  0  0  0
 64 65  4  0  0  0  0
 65 66  4  0  0  0  0
 61 66  4  0  0  0  0
 67 68  1  0  0  0  0
M  END
$$$$
