7FKV
  PyMOL2.5          3D                             0

 15 15  0  0  0  0  0  0  0  0999 V2000
   29.1249   47.3084    5.9161 N   0  3  0  0  0  0  0  0  0  0  0  0
   27.6863   44.4862   11.6749 C   0  0  0  0  0  0  0  0  0  0  0  0
   28.3111   45.3351    9.6522 O   0  0  0  0  0  0  0  0  0  0  0  0
   27.3264   45.5491   10.6445 C   0  0  0  0  0  0  0  0  0  0  0  0
   30.9321   43.6839    8.5254 N   0  0  0  0  0  0  0  0  0  0  0  0
   27.6063   46.9590    8.2557 O   0  0  0  0  0  0  0  0  0  0  0  0
   28.3891   46.0585    8.5453 C   0  0  0  0  0  0  0  0  0  0  0  0
   29.5105   45.6308    7.6595 C   0  0  0  0  0  0  0  0  0  0  0  0
   29.8304   46.1792    6.4664 C   0  0  0  0  0  0  0  0  0  0  0  0
   30.9257   45.6599    5.6699 C   0  0  0  0  0  0  0  0  0  0  0  0
   30.3927   44.7390    4.6044 C   0  0  0  0  0  0  0  0  0  0  0  0
   30.0153   45.4696    3.3283 C   0  0  0  0  0  0  0  0  0  0  0  0
   29.1970   46.7210    3.5176 C   0  0  0  0  0  0  0  0  0  0  0  0
   29.6860   47.6938    4.5580 C   0  0  0  0  0  0  0  0  0  0  0  0
   30.3108   44.5556    8.1261 C   0  0  0  0  0  0  0  0  0  0  0  0
  2  4  1  0  0  0  0
  3  4  1  0  0  0  0
  5 15  3  0  0  0  0
  6  7  2  0  0  0  0
  3  7  1  0  0  0  0
  7  8  1  0  0  0  0
  8 15  1  0  0  0  0
  1  9  1  0  0  0  0
  8  9  1  0  0  0  0
  9 10  1  0  0  0  0
 10 11  1  0  0  0  0
 11 12  1  0  0  0  0
 12 13  1  0  0  0  0
 13 14  1  0  0  0  0
  1 14  1  0  0  0  0
M  END
$$$$
