7FL8
  PyMOL2.5          3D                             0

 15 15  0  0  0  0  0  0  0  0999 V2000
   -8.0105   22.5984   24.0873 N   0  3  0  0  0  0  0  0  0  0  0  0
   -5.1347   18.1329   30.5322 C   0  0  0  0  0  0  0  0  0  0  0  0
   -6.4972   19.0178   28.8610 O   0  0  0  0  0  0  0  0  0  0  0  0
   -6.4198   18.9127   30.2725 C   0  0  0  0  0  0  0  0  0  0  0  0
   -7.3069   21.0438   29.0023 O   0  0  0  0  0  0  0  0  0  0  0  0
   -6.9743   20.1427   28.2628 C   0  0  0  0  0  0  0  0  0  0  0  0
   -8.5780   23.3391   24.8044 O   0  0  0  0  0  0  0  0  0  0  0  0
   -7.0320   20.2080   26.7829 C   0  0  0  0  0  0  0  0  0  0  0  0
   -7.7431   22.8118   22.9806 O   0  5  0  0  0  0  0  0  0  0  0  0
   -6.4795   19.1680   26.0820 C   0  0  0  0  0  0  0  0  0  0  0  0
   -6.4624   19.2407   24.7149 C   0  0  0  0  0  0  0  0  0  0  0  0
   -6.9803   20.3470   24.0466 C   0  0  0  0  0  0  0  0  0  0  0  0
   -7.5391   21.3621   24.7301 C   0  0  0  0  0  0  0  0  0  0  0  0
   -7.5751   21.2965   26.1351 C   0  0  0  0  0  0  0  0  0  0  0  0
   -6.9229   20.4209   22.7635 F   0  0  0  0  0  0  0  0  0  0  0  0
  1  7  4  0  0  0  0
  2  4  1  0  0  0  0
  3  4  1  0  0  0  0
  5  6  2  0  0  0  0
  3  6  1  0  0  0  0
  6  8  1  0  0  0  0
  1  9  4  0  0  0  0
  8 10  4  0  0  0  0
 10 11  4  0  0  0  0
 11 12  4  0  0  0  0
 12 15  1  0  0  0  0
  1 13  1  0  0  0  0
 12 13  4  0  0  0  0
 13 14  4  0  0  0  0
  8 14  4  0  0  0  0
M  END
$$$$
