7FLA
  PyMOL2.5          3D                             0

 26 26  0  0  0  0  0  0  0  0999 V2000
   21.0470  -22.4171   -7.4298 N   0  0  0  0  0  0  0  0  0  0  0  0
   19.7281  -22.4149  -14.1459 C   0  0  0  0  0  0  0  0  0  0  0  0
   20.6194  -20.2310  -13.9481 O   0  0  0  0  0  0  0  0  0  0  0  0
   20.2534  -21.2290  -13.4024 C   0  0  0  0  0  0  0  0  0  0  0  0
   22.5318  -24.0814   -7.6575 O   0  0  0  0  0  0  0  0  0  0  0  0
   20.2732  -21.3355  -11.9829 C   0  0  0  0  0  0  0  0  0  0  0  0
   20.2423  -20.2855  -11.1296 C   0  0  0  0  0  0  0  0  0  0  0  0
   20.1842  -20.7364   -9.7767 C   0  0  0  0  0  0  0  0  0  0  0  0
   20.1843  -22.0785   -9.6982 C   0  0  0  0  0  0  0  0  0  0  0  0
   20.1032  -22.9007   -8.4401 C   0  0  0  0  0  0  0  0  0  0  0  0
   22.2255  -23.0708   -7.1315 C   0  0  0  0  0  0  0  0  0  0  0  0
   23.0757  -22.4449   -6.0979 C   0  0  0  0  0  0  0  0  0  0  0  0
   20.2571  -22.7978  -11.2162 S   0  0  0  0  0  0  0  0  0  0  0  0
   36.9631   -5.7506   31.1961 N   0  0  0  0  0  0  0  0  0  0  0  0
   38.9659   -8.3089   36.0781 C   0  0  0  0  0  0  0  0  0  0  0  0
   40.3474   -6.6541   36.9890 O   0  0  0  0  0  0  0  0  0  0  0  0
   39.6479   -6.9936   36.0866 C   0  0  0  0  0  0  0  0  0  0  0  0
   34.8249   -6.5172   31.0679 O   0  0  0  0  0  0  0  0  0  0  0  0
   39.4179   -6.1436   34.9546 C   0  0  0  0  0  0  0  0  0  0  0  0
   39.9402   -4.9157   34.7972 C   0  0  0  0  0  0  0  0  0  0  0  0
   39.4771   -4.2756   33.6322 C   0  0  0  0  0  0  0  0  0  0  0  0
   38.6084   -5.0684   32.9432 C   0  0  0  0  0  0  0  0  0  0  0  0
   37.8967   -4.7211   31.6704 C   0  0  0  0  0  0  0  0  0  0  0  0
   35.6194   -5.7065   31.5055 C   0  0  0  0  0  0  0  0  0  0  0  0
   35.2086   -4.5640   32.3881 C   0  0  0  0  0  0  0  0  0  0  0  0
   38.3827   -6.5526   33.7102 S   0  0  0  0  0  0  0  0  0  0  0  0
  2  4  1  0  0  0  0
  3  4  2  0  0  0  0
  4  6  1  0  0  0  0
  6 13  4  0  0  0  0
  6  7  4  0  0  0  0
  7  8  4  0  0  0  0
  8  9  4  0  0  0  0
  9 10  1  0  0  0  0
  9 13  4  0  0  0  0
  1 10  1  0  0  0  0
  1 11  1  0  0  0  0
  5 11  2  0  0  0  0
 11 12  1  0  0  0  0
 15 17  1  0  0  0  0
 16 17  2  0  0  0  0
 17 19  1  0  0  0  0
 19 26  4  0  0  0  0
 19 20  4  0  0  0  0
 20 21  4  0  0  0  0
 21 22  4  0  0  0  0
 22 23  1  0  0  0  0
 22 26  4  0  0  0  0
 14 23  1  0  0  0  0
 14 24  1  0  0  0  0
 18 24  2  0  0  0  0
 24 25  1  0  0  0  0
M  END
$$$$
