7FLB
  PyMOL2.5          3D                             0

 12 12  0  0  0  0  0  0  0  0999 V2000
    8.7295  -30.6816  -20.4908 C   0  0  0  0  0  0  0  0  0  0  0  0
    4.8784  -29.8154  -21.8865 O   0  0  0  0  0  0  0  0  0  0  0  0
    7.4905  -30.6021  -21.0779 C   0  0  0  0  0  0  0  0  0  0  0  0
    3.9688  -30.6463  -20.1012 O   0  5  0  0  0  0  0  0  0  0  0  0
    6.3322  -30.5547  -20.2230 C   0  0  0  0  0  0  0  0  0  0  0  0
    6.4676  -30.6374  -18.8648 C   0  0  0  0  0  0  0  0  0  0  0  0
    7.6970  -30.7232  -18.2792 C   0  0  0  0  0  0  0  0  0  0  0  0
    8.7876  -30.7275  -19.0483 C   0  0  0  0  0  0  0  0  0  0  0  0
   10.0866  -30.7800  -18.3703 C   0  0  0  0  0  0  0  0  0  0  0  0
    4.9406  -30.3289  -20.7957 C   0  0  0  0  0  0  0  0  0  0  0  0
   10.1422  -29.8187  -17.5147 F   0  0  0  0  0  0  0  0  0  0  0  0
   10.1135  -31.7576  -17.5509 F   0  0  0  0  0  0  0  0  0  0  0  0
  1  3  4  0  0  0  0
  3  5  4  0  0  0  0
  5  6  4  0  0  0  0
  6  7  4  0  0  0  0
  1  8  4  0  0  0  0
  7  8  4  0  0  0  0
  8  9  1  0  0  0  0
  9 11  1  0  0  0  0
  9 12  1  0  0  0  0
  2 10  4  0  0  0  0
  4 10  4  0  0  0  0
  5 10  1  0  0  0  0
M  END
$$$$
