7FLD
  PyMOL2.5          3D                             0

 16 16  0  0  0  0  0  0  0  0999 V2000
   -2.3579   30.9479    4.8527 N   0  0  0  0  0  0  0  0  0  0  0  0
   -4.2065   29.0759    0.3472 C   0  0  0  0  0  0  0  0  0  0  0  0
   -0.7278   30.0389    3.6771 O   0  0  0  0  0  0  0  0  0  0  0  0
   -4.0968   28.3274    1.4947 C   0  0  0  0  0  0  0  0  0  0  0  0
   -4.7524   27.3118   -1.3818 O   0  0  0  0  0  0  0  0  0  0  0  0
   -3.3931   28.7842    2.6012 C   0  0  0  0  0  0  0  0  0  0  0  0
   -5.9697   29.0729   -1.4605 O   0  0  0  0  0  0  0  0  0  0  0  0
   -2.7732   29.9920    2.5649 C   0  0  0  0  0  0  0  0  0  0  0  0
   -2.8847   30.7760    1.4356 C   0  0  0  0  0  0  0  0  0  0  0  0
   -3.6054   30.3273    0.3145 C   0  0  0  0  0  0  0  0  0  0  0  0
   -1.8921   30.3443    3.7229 C   0  0  0  0  0  0  0  0  0  0  0  0
   -1.4491   31.2299    5.9104 C   0  0  0  0  0  0  0  0  0  0  0  0
   -0.7859   29.9960    6.4654 C   0  0  0  0  0  0  0  0  0  0  0  0
   -3.7231   31.3321    5.0564 C   0  0  0  0  0  0  0  0  0  0  0  0
   -4.0220   32.7765    4.6313 C   0  0  0  0  0  0  0  0  0  0  0  0
   -4.9736   28.4945   -0.8368 B   0  0  0  0  0  0  0  0  0  0  0  0
  2 16  1  0  0  0  0
  2  4  4  0  0  0  0
  4  6  4  0  0  0  0
  5 16  1  0  0  0  0
  6  8  4  0  0  0  0
  8  9  4  0  0  0  0
  2 10  4  0  0  0  0
  9 10  4  0  0  0  0
  1 11  1  0  0  0  0
  3 11  2  0  0  0  0
  8 11  1  0  0  0  0
  1 12  1  0  0  0  0
 12 13  1  0  0  0  0
  1 14  1  0  0  0  0
 14 15  1  0  0  0  0
  7 16  1  0  0  0  0
M  END
$$$$
