7FLH
  PyMOL2.5          3D                             0

 11 11  0  0  0  0  0  0  0  0999 V2000
   57.7174   19.0060  -36.4851 N   0  0  0  0  0  0  0  0  0  0  0  0
   57.6618   16.3173  -34.0265 C   0  0  0  0  0  0  0  0  0  0  0  0
   59.5533   21.3653  -34.5716 O   0  0  0  0  0  0  0  0  0  0  0  0
   57.8291   17.5575  -34.7589 C   0  0  0  0  0  0  0  0  0  0  0  0
   57.4267   17.7763  -36.0538 N   0  0  0  0  0  0  0  0  0  0  0  0
   58.7327   21.8200  -36.4905 O   0  0  0  0  0  0  0  0  0  0  0  0
   58.4030   18.7225  -34.3605 C   0  0  0  0  0  0  0  0  0  0  0  0
   58.3321   19.6038  -35.4475 C   0  0  0  0  0  0  0  0  0  0  0  0
   58.8966   20.9441  -35.4673 C   0  0  0  0  0  0  0  0  0  0  0  0
   57.9818   21.4705  -37.6102 C   0  0  0  0  0  0  0  0  0  0  0  0
   59.1268   19.0635  -32.7125 Br  0  0  0  0  0  0  0  0  0  0  0  0
  2  4  1  0  0  0  0
  4  7  4  0  0  0  0
  1  5  4  0  0  0  0
  4  5  4  0  0  0  0
  6  9  1  0  0  0  0
  6 10  1  0  0  0  0
  7 11  1  0  0  0  0
  1  8  4  0  0  0  0
  7  8  4  0  0  0  0
  3  9  2  0  0  0  0
  8  9  1  0  0  0  0
M  END
$$$$
