7FLK
  PyMOL2.5          3D                             0

 32 36  0  0  0  0  0  0  0  0999 V2000
   59.9469    3.5690  -14.2114 N   0  0  0  0  0  0  0  0  0  0  0  0
   57.7810    6.4632  -10.6641 C   0  0  0  0  0  0  0  0  0  0  0  0
   61.8351    3.6935  -13.2393 O   0  0  0  0  0  0  0  0  0  0  0  0
   58.6713    6.7657  -11.6848 C   0  0  0  0  0  0  0  0  0  0  0  0
   57.5217    3.5092  -14.5446 N   0  3  0  0  0  0  0  0  0  0  0  0
   59.0346    5.8185  -12.5525 C   0  0  0  0  0  0  0  0  0  0  0  0
   58.5173    4.5515  -12.4269 C   0  0  0  0  0  0  0  0  0  0  0  0
   57.6794    4.2452  -11.4064 C   0  0  0  0  0  0  0  0  0  0  0  0
   57.3166    5.2297  -10.5502 C   0  0  0  0  0  0  0  0  0  0  0  0
   58.7399    3.5010  -13.5312 C   0  0  0  0  0  0  0  0  0  0  0  0
   58.7954    2.1705  -12.9026 C   0  0  0  0  0  0  0  0  0  0  0  0
   60.1837    2.2242  -12.3887 C   0  0  0  0  0  0  0  0  0  0  0  0
   60.8423    3.2263  -13.2769 C   0  0  0  0  0  0  0  0  0  0  0  0
   60.2476    4.3942  -15.2249 C   0  0  0  0  0  0  0  0  0  0  0  0
   58.9530    4.9800  -15.7090 C   0  0  0  0  0  0  0  0  0  0  0  0
   57.9366    3.9679  -15.8651 C   0  0  0  0  0  0  0  0  0  0  0  0
   78.9005   20.5352   -9.4182 N   0  0  0  0  0  0  0  0  0  0  0  0
   75.6582   20.2682   -5.4068 C   0  0  0  0  0  0  0  0  0  0  0  0
   78.8665   22.1664  -10.9374 O   0  0  0  0  0  0  0  0  0  0  0  0
   76.7984   19.5395   -5.1589 C   0  0  0  0  0  0  0  0  0  0  0  0
   80.0496   19.3275   -7.6935 N   0  3  0  0  0  0  0  0  0  0  0  0
   77.8671   19.5793   -6.0248 C   0  0  0  0  0  0  0  0  0  0  0  0
   77.8202   20.3665   -7.1596 C   0  0  0  0  0  0  0  0  0  0  0  0
   76.6789   21.0745   -7.4347 C   0  0  0  0  0  0  0  0  0  0  0  0
   75.6199   21.0245   -6.5610 C   0  0  0  0  0  0  0  0  0  0  0  0
   79.0583   20.5187   -8.0064 C   0  0  0  0  0  0  0  0  0  0  0  0
   79.8299   21.8169   -7.6894 C   0  0  0  0  0  0  0  0  0  0  0  0
   80.3346   22.2840   -9.0324 C   0  0  0  0  0  0  0  0  0  0  0  0
   79.3123   21.7353   -9.9485 C   0  0  0  0  0  0  0  0  0  0  0  0
   78.5896   19.3460  -10.1702 C   0  0  0  0  0  0  0  0  0  0  0  0
   78.3431   18.2459   -9.1667 C   0  0  0  0  0  0  0  0  0  0  0  0
   79.5807   18.0243   -8.3202 C   0  0  0  0  0  0  0  0  0  0  0  0
  1 14  1  0  0  0  0
  2  4  4  0  0  0  0
  4  6  4  0  0  0  0
  5 10  1  0  0  0  0
  5 16  1  0  0  0  0
  6  7  4  0  0  0  0
  7  8  4  0  0  0  0
  2  9  4  0  0  0  0
  8  9  4  0  0  0  0
  1 10  1  0  0  0  0
  7 10  1  0  0  0  0
 10 11  1  0  0  0  0
 11 12  1  0  0  0  0
 12 13  1  0  0  0  0
  1 13  1  0  0  0  0
  3 13  2  0  0  0  0
 14 15  1  0  0  0  0
 15 16  1  0  0  0  0
 17 30  1  0  0  0  0
 18 20  4  0  0  0  0
 20 22  4  0  0  0  0
 21 26  1  0  0  0  0
 21 32  1  0  0  0  0
 22 23  4  0  0  0  0
 23 24  4  0  0  0  0
 18 25  4  0  0  0  0
 24 25  4  0  0  0  0
 17 26  1  0  0  0  0
 23 26  1  0  0  0  0
 26 27  1  0  0  0  0
 27 28  1  0  0  0  0
 28 29  1  0  0  0  0
 17 29  1  0  0  0  0
 19 29  2  0  0  0  0
 30 31  1  0  0  0  0
 31 32  1  0  0  0  0
M  END
$$$$
