7FLL
  PyMOL2.5          3D                             0

 32 34  0  0  0  0  0  0  0  0999 V2000
  -11.1540   37.5209   -0.3650 N   0  0  0  0  0  0  0  0  0  0  0  0
   -8.5090   41.3644    1.1108 C   0  0  0  0  0  0  0  0  0  0  0  0
  -12.9565   36.1946   -0.5939 O   0  0  0  0  0  0  0  0  0  0  0  0
   -9.7356   40.5308    1.1231 C   0  0  0  0  0  0  0  0  0  0  0  0
  -12.7368   36.9358    2.2374 O   0  0  0  0  0  0  0  0  0  0  0  0
  -10.8282   40.8906    1.9070 C   0  0  0  0  0  0  0  0  0  0  0  0
  -11.9461   40.0730    1.9657 C   0  0  0  0  0  0  0  0  0  0  0  0
  -11.9241   38.9330    1.2307 C   0  0  0  0  0  0  0  0  0  0  0  0
  -10.8480   38.6166    0.4082 C   0  0  0  0  0  0  0  0  0  0  0  0
   -9.7361   39.3825    0.3580 C   0  0  0  0  0  0  0  0  0  0  0  0
  -12.3831   37.0308   -0.0198 C   0  0  0  0  0  0  0  0  0  0  0  0
  -12.8600   37.7966    1.1951 C   0  0  0  0  0  0  0  0  0  0  0  0
  -14.3438   38.2009    1.0433 C   0  0  0  0  0  0  0  0  0  0  0  0
  -15.2025   37.2380    1.3489 F   0  0  0  0  0  0  0  0  0  0  0  0
  -14.6826   39.2249    1.7921 F   0  0  0  0  0  0  0  0  0  0  0  0
  -14.5998   38.5357   -0.1880 F   0  0  0  0  0  0  0  0  0  0  0  0
   53.8439   53.4874   45.1257 N   0  0  0  0  0  0  0  0  0  0  0  0
   51.7119   50.3655   48.3488 C   0  0  0  0  0  0  0  0  0  0  0  0
   54.1460   55.5217   43.9994 O   0  0  0  0  0  0  0  0  0  0  0  0
   51.8828   51.7040   47.7321 C   0  0  0  0  0  0  0  0  0  0  0  0
   51.5202   55.9016   45.1153 O   0  0  0  0  0  0  0  0  0  0  0  0
   51.0861   52.7824   48.1492 C   0  0  0  0  0  0  0  0  0  0  0  0
   51.2526   54.0115   47.5744 C   0  0  0  0  0  0  0  0  0  0  0  0
   52.1939   54.1419   46.6063 C   0  0  0  0  0  0  0  0  0  0  0  0
   53.0066   53.0568   46.1681 C   0  0  0  0  0  0  0  0  0  0  0  0
   52.8583   51.8283   46.7356 C   0  0  0  0  0  0  0  0  0  0  0  0
   53.6171   54.8598   44.8501 C   0  0  0  0  0  0  0  0  0  0  0  0
   52.5348   55.3525   45.8545 C   0  0  0  0  0  0  0  0  0  0  0  0
   53.0348   56.4629   46.8442 C   0  0  0  0  0  0  0  0  0  0  0  0
   54.2232   56.2109   47.4046 F   0  0  0  0  0  0  0  0  0  0  0  0
   53.1096   57.6624   46.2753 F   0  0  0  0  0  0  0  0  0  0  0  0
   52.1907   56.6196   47.8733 F   0  0  0  0  0  0  0  0  0  0  0  0
  2  4  1  0  0  0  0
  4  6  4  0  0  0  0
  4 10  4  0  0  0  0
  6  7  4  0  0  0  0
  7  8  4  0  0  0  0
  1  9  1  0  0  0  0
  8  9  4  0  0  0  0
  9 10  4  0  0  0  0
  1 11  1  0  0  0  0
  3 11  2  0  0  0  0
 11 12  1  0  0  0  0
  5 12  1  0  0  0  0
  8 12  1  0  0  0  0
 12 13  1  0  0  0  0
 13 14  1  0  0  0  0
 13 15  1  0  0  0  0
 13 16  1  0  0  0  0
 18 20  1  0  0  0  0
 20 22  4  0  0  0  0
 20 26  4  0  0  0  0
 22 23  4  0  0  0  0
 23 24  4  0  0  0  0
 17 25  1  0  0  0  0
 24 25  4  0  0  0  0
 25 26  4  0  0  0  0
 17 27  1  0  0  0  0
 19 27  2  0  0  0  0
 27 28  1  0  0  0  0
 21 28  1  0  0  0  0
 24 28  1  0  0  0  0
 28 29  1  0  0  0  0
 29 30  1  0  0  0  0
 29 31  1  0  0  0  0
 29 32  1  0  0  0  0
M  END
$$$$
