7FM8
  PyMOL2.5          3D                             0

 42 42  0  0  0  0  0  0  0  0999 V2000
   -9.5756   40.1591   28.9201 N   0  0  0  0  0  0  0  0  0  0  0  0
  -11.2280   43.4371   32.6821 C   0  0  0  0  0  0  0  0  0  0  0  0
  -10.3755   38.0047   28.8275 O   0  0  0  0  0  0  0  0  0  0  0  0
   -9.8433   43.5706   32.0790 C   0  0  0  0  0  0  0  0  0  0  0  0
  -10.4839   38.9582   30.7518 N   0  0  0  0  0  0  0  0  0  0  0  0
  -10.2911   39.9163   32.5852 O   0  0  0  0  0  0  0  0  0  0  0  0
   -9.1294   42.2522   32.0343 C   0  0  0  0  0  0  0  0  0  0  0  0
   -8.8749   42.4423   29.0610 N   0  0  0  0  0  0  0  0  0  0  0  0
   -9.6076   41.3101   31.0000 C   0  0  0  0  0  0  0  0  0  0  0  0
   -9.3418   41.3724   29.6961 C   0  0  0  0  0  0  0  0  0  0  0  0
  -10.1733   38.9683   29.4708 C   0  0  0  0  0  0  0  0  0  0  0  0
  -10.1937   40.0466   31.5289 C   0  0  0  0  0  0  0  0  0  0  0  0
  -11.1764   37.7964   31.3306 C   0  0  0  0  0  0  0  0  0  0  0  0
   -9.1802   40.0300   27.5467 C   0  0  0  0  0  0  0  0  0  0  0  0
   13.1650   28.9435   17.2658 N   0  0  0  0  0  0  0  0  0  0  0  0
   14.9543   23.9365   19.5309 C   0  0  0  0  0  0  0  0  0  0  0  0
   11.6237   29.4681   15.7461 O   0  0  0  0  0  0  0  0  0  0  0  0
   14.3672   24.9041   18.6096 C   0  0  0  0  0  0  0  0  0  0  0  0
   11.3250   27.5997   16.8617 N   0  0  0  0  0  0  0  0  0  0  0  0
   11.0786   25.7698   17.9843 O   0  0  0  0  0  0  0  0  0  0  0  0
   13.4849   25.9144   19.3301 C   0  0  0  0  0  0  0  0  0  0  0  0
   14.7771   28.2852   18.7977 N   0  0  0  0  0  0  0  0  0  0  0  0
   12.9650   26.9502   18.4319 C   0  0  0  0  0  0  0  0  0  0  0  0
   13.6370   28.0534   18.1782 C   0  0  0  0  0  0  0  0  0  0  0  0
   11.9870   28.7137   16.5803 C   0  0  0  0  0  0  0  0  0  0  0  0
   11.7623   26.6878   17.7996 C   0  0  0  0  0  0  0  0  0  0  0  0
   10.1315   27.3253   16.0818 C   0  0  0  0  0  0  0  0  0  0  0  0
   13.8513   30.1572   16.9685 C   0  0  0  0  0  0  0  0  0  0  0  0
   21.5711   24.4967   24.2982 N   0  0  0  0  0  0  0  0  0  0  0  0
   17.0376   21.9878   22.3957 C   0  0  0  0  0  0  0  0  0  0  0  0
   23.6462   23.8048   24.7945 O   0  0  0  0  0  0  0  0  0  0  0  0
   18.3743   22.2242   22.9569 C   0  0  0  0  0  0  0  0  0  0  0  0
   22.5510   22.5637   23.2644 N   0  0  0  0  0  0  0  0  0  0  0  0
   21.4132   21.3485   21.7818 O   0  0  0  0  0  0  0  0  0  0  0  0
   19.1376   23.0592   22.0322 C   0  0  0  0  0  0  0  0  0  0  0  0
   19.3903   25.2694   23.6127 N   0  0  0  0  0  0  0  0  0  0  0  0
   20.3519   23.2923   22.7087 C   0  0  0  0  0  0  0  0  0  0  0  0
   20.4254   24.3321   23.5486 C   0  0  0  0  0  0  0  0  0  0  0  0
   22.6563   23.6135   24.1533 C   0  0  0  0  0  0  0  0  0  0  0  0
   21.4086   22.3374   22.5046 C   0  0  0  0  0  0  0  0  0  0  0  0
   23.6820   21.6289   23.1129 C   0  0  0  0  0  0  0  0  0  0  0  0
   21.6862   25.5731   25.2670 C   0  0  0  0  0  0  0  0  0  0  0  0
  2  4  1  0  0  0  0
  4  7  1  0  0  0  0
  5 11  4  0  0  0  0
  5 12  4  0  0  0  0
  5 13  1  0  0  0  0
  6 12  2  0  0  0  0
  8 10  1  0  0  0  0
  7  9  1  0  0  0  0
  1 10  4  0  0  0  0
  9 10  4  0  0  0  0
  1 11  4  0  0  0  0
  3 11  2  0  0  0  0
  9 12  4  0  0  0  0
  1 14  1  0  0  0  0
 16 18  1  0  0  0  0
 18 21  1  0  0  0  0
 19 25  4  0  0  0  0
 19 26  4  0  0  0  0
 19 27  1  0  0  0  0
 20 26  2  0  0  0  0
 22 24  1  0  0  0  0
 21 23  1  0  0  0  0
 15 24  4  0  0  0  0
 23 24  4  0  0  0  0
 15 25  4  0  0  0  0
 17 25  2  0  0  0  0
 23 26  4  0  0  0  0
 15 28  1  0  0  0  0
 30 32  1  0  0  0  0
 32 35  1  0  0  0  0
 33 39  4  0  0  0  0
 33 40  4  0  0  0  0
 33 41  1  0  0  0  0
 34 40  2  0  0  0  0
 36 38  1  0  0  0  0
 35 37  1  0  0  0  0
 29 38  4  0  0  0  0
 37 38  4  0  0  0  0
 29 39  4  0  0  0  0
 31 39  2  0  0  0  0
 37 40  4  0  0  0  0
 29 42  1  0  0  0  0
M  END
$$$$
