7FMN
  PyMOL2.5          3D                             0

 16 16  0  0  0  0  0  0  0  0999 V2000
   77.5563   13.9137   52.3554 N   0  0  0  0  0  0  0  0  0  0  0  0
   77.3876   17.5329   51.5436 C   0  0  0  0  0  0  0  0  0  0  0  0
   76.0518   14.6372   53.9467 O   0  0  0  0  0  0  0  0  0  0  0  0
   77.9144   17.5598   50.2614 C   0  0  0  0  0  0  0  0  0  0  0  0
   79.0093   11.5849   54.9449 N   0  0  0  0  0  0  0  0  0  0  0  0
   78.3393   16.3705   49.7195 C   0  0  0  0  0  0  0  0  0  0  0  0
   78.2457   15.1504   50.4066 C   0  0  0  0  0  0  0  0  0  0  0  0
   77.7088   15.1455   51.6848 C   0  0  0  0  0  0  0  0  0  0  0  0
   77.2858   16.3463   52.2553 C   0  0  0  0  0  0  0  0  0  0  0  0
   76.7247   13.7398   53.4584 C   0  0  0  0  0  0  0  0  0  0  0  0
   76.6851   12.3303   54.0524 C   0  0  0  0  0  0  0  0  0  0  0  0
   77.9765   11.9035   54.5426 C   0  0  0  0  0  0  0  0  0  0  0  0
   78.9829   16.2736   48.3570 C   0  0  0  0  0  0  0  0  0  0  0  0
   79.8300   15.2135   48.3015 F   0  0  0  0  0  0  0  0  0  0  0  0
   78.1074   16.1081   47.3605 F   0  0  0  0  0  0  0  0  0  0  0  0
   79.6750   17.3287   47.9510 F   0  0  0  0  0  0  0  0  0  0  0  0
  2  4  4  0  0  0  0
  4  6  4  0  0  0  0
  5 12  3  0  0  0  0
  6  7  4  0  0  0  0
  1  8  1  0  0  0  0
  7  8  4  0  0  0  0
  2  9  4  0  0  0  0
  8  9  4  0  0  0  0
  1 10  1  0  0  0  0
  3 10  2  0  0  0  0
 10 11  1  0  0  0  0
 11 12  1  0  0  0  0
  6 13  1  0  0  0  0
 13 14  1  0  0  0  0
 13 15  1  0  0  0  0
 13 16  1  0  0  0  0
M  END
$$$$
