7FN1
  PyMOL2.5          3D                             0

 42 42  0  0  0  0  0  0  0  0999 V2000
   30.7375   -8.2770   -7.9836 N   0  0  0  0  0  0  0  0  0  0  0  0
   28.4328   -9.6331   -7.0854 C   0  0  0  0  0  0  0  0  0  0  0  0
   24.7904   -6.1091   -7.9255 O   0  0  0  0  0  0  0  0  0  0  0  0
   28.3804   -8.2414   -7.5553 C   0  0  0  0  0  0  0  0  0  0  0  0
   25.9003   -4.3207   -8.6892 N   0  0  0  0  0  0  0  0  0  0  0  0
   27.1823   -7.5570   -7.5701 C   0  0  0  0  0  0  0  0  0  0  0  0
   27.1274   -6.2705   -8.0530 C   0  0  0  0  0  0  0  0  0  0  0  0
   28.2795   -5.6261   -8.5021 C   0  0  0  0  0  0  0  0  0  0  0  0
   29.4907   -6.2914   -8.4841 C   0  0  0  0  0  0  0  0  0  0  0  0
   29.5448   -7.6148   -8.0100 C   0  0  0  0  0  0  0  0  0  0  0  0
   25.8452   -5.5841   -8.1952 C   0  0  0  0  0  0  0  0  0  0  0  0
   24.6730   -3.5625   -8.8728 C   0  0  0  0  0  0  0  0  0  0  0  0
   24.5872   -2.4146   -7.8605 C   0  0  0  0  0  0  0  0  0  0  0  0
   24.6354   -2.9920  -10.2800 C   0  0  0  0  0  0  0  0  0  0  0  0
   20.9543  -33.9632  -26.2634 N   0  0  0  0  0  0  0  0  0  0  0  0
   20.0925  -33.9447  -28.9864 C   0  0  0  0  0  0  0  0  0  0  0  0
   16.1450  -30.6593  -28.6348 O   0  0  0  0  0  0  0  0  0  0  0  0
   19.3436  -33.2751  -27.9110 C   0  0  0  0  0  0  0  0  0  0  0  0
   15.5920  -30.9330  -26.5393 N   0  0  0  0  0  0  0  0  0  0  0  0
   18.2078  -32.5792  -28.2124 C   0  0  0  0  0  0  0  0  0  0  0  0
   17.5512  -31.8919  -27.2442 C   0  0  0  0  0  0  0  0  0  0  0  0
   17.9788  -31.8950  -25.9516 C   0  0  0  0  0  0  0  0  0  0  0  0
   19.1009  -32.5977  -25.6082 C   0  0  0  0  0  0  0  0  0  0  0  0
   19.8077  -33.2970  -26.5936 C   0  0  0  0  0  0  0  0  0  0  0  0
   16.3924  -31.1154  -27.5580 C   0  0  0  0  0  0  0  0  0  0  0  0
   14.4117  -30.1901  -26.7099 C   0  0  0  0  0  0  0  0  0  0  0  0
   13.3778  -31.2587  -26.8774 C   0  0  0  0  0  0  0  0  0  0  0  0
   14.1545  -29.4354  -25.4291 C   0  0  0  0  0  0  0  0  0  0  0  0
    1.3476  -34.3072  -29.1494 N   0  0  0  0  0  0  0  0  0  0  0  0
    3.1149  -34.1329  -26.8808 C   0  0  0  0  0  0  0  0  0  0  0  0
    7.1809  -34.2531  -31.1802 O   0  0  0  0  0  0  0  0  0  0  0  0
    3.5679  -34.0864  -28.2928 C   0  0  0  0  0  0  0  0  0  0  0  0
    7.5310  -33.4476  -29.1866 N   0  0  0  0  0  0  0  0  0  0  0  0
    4.8897  -33.9756  -28.5696 C   0  0  0  0  0  0  0  0  0  0  0  0
    5.3611  -34.0998  -29.8307 C   0  0  0  0  0  0  0  0  0  0  0  0
    4.5308  -34.3496  -30.8540 C   0  0  0  0  0  0  0  0  0  0  0  0
    3.1908  -34.4193  -30.6231 C   0  0  0  0  0  0  0  0  0  0  0  0
    2.6929  -34.2730  -29.3326 C   0  0  0  0  0  0  0  0  0  0  0  0
    6.7490  -33.9503  -30.1273 C   0  0  0  0  0  0  0  0  0  0  0  0
    8.9244  -33.3092  -29.4619 C   0  0  0  0  0  0  0  0  0  0  0  0
    9.1617  -31.9617  -30.0042 C   0  0  0  0  0  0  0  0  0  0  0  0
    9.7489  -33.4896  -28.2088 C   0  0  0  0  0  0  0  0  0  0  0  0
  2  4  1  0  0  0  0
  4  6  4  0  0  0  0
  4 10  4  0  0  0  0
  5 11  1  0  0  0  0
  5 12  1  0  0  0  0
  6  7  4  0  0  0  0
  7  8  4  0  0  0  0
  8  9  4  0  0  0  0
  9 10  4  0  0  0  0
  1 10  1  0  0  0  0
  3 11  2  0  0  0  0
  7 11  1  0  0  0  0
 12 13  1  0  0  0  0
 12 14  1  0  0  0  0
 16 18  1  0  0  0  0
 18 20  4  0  0  0  0
 18 24  4  0  0  0  0
 19 25  1  0  0  0  0
 19 26  1  0  0  0  0
 20 21  4  0  0  0  0
 21 22  4  0  0  0  0
 22 23  4  0  0  0  0
 23 24  4  0  0  0  0
 15 24  1  0  0  0  0
 17 25  2  0  0  0  0
 21 25  1  0  0  0  0
 26 27  1  0  0  0  0
 26 28  1  0  0  0  0
 30 32  1  0  0  0  0
 32 34  4  0  0  0  0
 32 38  4  0  0  0  0
 33 39  1  0  0  0  0
 33 40  1  0  0  0  0
 34 35  4  0  0  0  0
 35 36  4  0  0  0  0
 36 37  4  0  0  0  0
 37 38  4  0  0  0  0
 29 38  1  0  0  0  0
 31 39  2  0  0  0  0
 35 39  1  0  0  0  0
 40 41  1  0  0  0  0
 40 42  1  0  0  0  0
M  END
$$$$
