7FN2
  PyMOL2.5          3D                             0

 14 15  0  0  0  0  0  0  0  0999 V2000
   -7.6496   -9.8394    9.2840 N   0  0  0  0  0  0  0  0  0  0  0  0
   -6.4378   -8.9155    7.4784 C   0  0  0  0  0  0  0  0  0  0  0  0
   -9.4080  -14.2765   10.7460 O   0  0  0  0  0  0  0  0  0  0  0  0
   -7.1048   -8.8185    8.6852 C   0  0  0  0  0  0  0  0  0  0  0  0
   -6.6124   -9.9348    4.4662 N   0  3  0  0  0  0  0  0  0  0  0  0
   -7.5430  -11.0606    8.6799 C   0  0  0  0  0  0  0  0  0  0  0  0
   -8.0358  -12.1567    9.3598 N   0  0  0  0  0  0  0  0  0  0  0  0
   -6.9007  -11.2200    7.4657 C   0  0  0  0  0  0  0  0  0  0  0  0
   -6.3576  -10.1321    6.8955 C   0  0  0  0  0  0  0  0  0  0  0  0
   -5.6384  -10.2257    5.6141 C   0  0  0  0  0  0  0  0  0  0  0  0
   -8.1654  -13.4793    8.7543 C   0  0  0  0  0  0  0  0  0  0  0  0
   -8.3010  -14.4832    9.9211 C   0  0  0  0  0  0  0  0  0  0  0  0
   -9.8870  -12.9916   10.6920 C   0  0  0  0  0  0  0  0  0  0  0  0
   -8.7195  -11.9781   10.6416 C   0  0  0  0  0  0  0  0  0  0  0  0
  1  4  4  0  0  0  0
  2  4  4  0  0  0  0
  5 10  1  0  0  0  0
  1  6  4  0  0  0  0
  6  7  1  0  0  0  0
  7 11  1  0  0  0  0
  7 14  1  0  0  0  0
  6  8  4  0  0  0  0
  2  9  4  0  0  0  0
  8  9  4  0  0  0  0
  9 10  1  0  0  0  0
  3 12  1  0  0  0  0
 11 12  1  0  0  0  0
  3 13  1  0  0  0  0
 13 14  1  0  0  0  0
M  END
$$$$
