7FN4
  PyMOL2.5          3D                             0

 24 24  0  0  0  0  0  0  0  0999 V2000
  -17.9101   12.3009   -6.9780 N   0  0  0  0  0  0  0  0  0  0  0  0
  -16.8928   16.6087   -7.6147 C   0  0  0  0  0  0  0  0  0  0  0  0
  -17.7062   14.4259   -7.2476 O   0  0  0  0  0  0  0  0  0  0  0  0
  -18.1280   15.7150   -7.6828 C   0  0  0  0  0  0  0  0  0  0  0  0
  -19.3623    9.1098   -7.9496 N   0  0  0  0  0  0  0  0  0  0  0  0
  -19.5581   13.5260   -8.1014 O   0  0  0  0  0  0  0  0  0  0  0  0
  -18.5110   13.3990   -7.5069 C   0  0  0  0  0  0  0  0  0  0  0  0
  -18.3911   10.9998   -6.9512 C   0  0  0  0  0  0  0  0  0  0  0  0
  -18.2467   10.3335   -5.7595 C   0  0  0  0  0  0  0  0  0  0  0  0
  -18.6364    9.0538   -5.6604 C   0  0  0  0  0  0  0  0  0  0  0  0
  -19.1974    8.4762   -6.7865 C   0  0  0  0  0  0  0  0  0  0  0  0
  -18.9536   10.3589   -8.0194 C   0  0  0  0  0  0  0  0  0  0  0  0
   15.2796    0.7212   19.1437 N   0  0  0  0  0  0  0  0  0  0  0  0
   12.1317   -0.5860   17.5923 C   0  0  0  0  0  0  0  0  0  0  0  0
   13.1172    0.4826   19.1582 O   0  0  0  0  0  0  0  0  0  0  0  0
   12.0139   -0.3272   19.0608 C   0  0  0  0  0  0  0  0  0  0  0  0
   18.8248    0.4782   20.0129 N   0  0  0  0  0  0  0  0  0  0  0  0
   14.4237   -1.3666   18.9364 O   0  0  0  0  0  0  0  0  0  0  0  0
   14.2866   -0.1655   19.0690 C   0  0  0  0  0  0  0  0  0  0  0  0
   16.6387    0.2922   19.1088 C   0  0  0  0  0  0  0  0  0  0  0  0
   17.0543   -0.5544   18.1844 C   0  0  0  0  0  0  0  0  0  0  0  0
   18.3680   -0.8766   18.1701 C   0  0  0  0  0  0  0  0  0  0  0  0
   19.1999   -0.3399   19.0822 C   0  0  0  0  0  0  0  0  0  0  0  0
   17.5664    0.7860   20.0367 C   0  0  0  0  0  0  0  0  0  0  0  0
  2  4  1  0  0  0  0
  3  4  1  0  0  0  0
  5 11  4  0  0  0  0
  5 12  4  0  0  0  0
  6  7  2  0  0  0  0
  1  7  1  0  0  0  0
  3  7  1  0  0  0  0
  1  8  1  0  0  0  0
  8  9  4  0  0  0  0
  9 10  4  0  0  0  0
 10 11  4  0  0  0  0
  8 12  4  0  0  0  0
 14 16  1  0  0  0  0
 15 16  1  0  0  0  0
 17 23  4  0  0  0  0
 17 24  4  0  0  0  0
 18 19  2  0  0  0  0
 13 19  1  0  0  0  0
 15 19  1  0  0  0  0
 13 20  1  0  0  0  0
 20 21  4  0  0  0  0
 21 22  4  0  0  0  0
 22 23  4  0  0  0  0
 20 24  4  0  0  0  0
M  END
$$$$
