7FN9
  PyMOL2.5          3D                             0

 15 16  0  0  0  0  0  0  0  0999 V2000
   33.5733   10.1482  -18.7479 N   0  3  0  0  0  0  0  0  0  0  0  0
   34.4904   12.1634  -17.5444 C   0  0  0  0  0  0  0  0  0  0  0  0
   33.2442   11.5209  -18.1283 C   0  0  0  0  0  0  0  0  0  0  0  0
   33.2732    8.2886  -20.9077 N   0  0  0  0  0  0  0  0  0  0  0  0
   34.1363   10.4072  -20.1540 C   0  0  0  0  0  0  0  0  0  0  0  0
   31.3958    4.7591  -24.8006 N   0  0  0  0  0  0  0  0  0  0  0  0
   33.2565    9.7322  -21.2334 C   0  0  0  0  0  0  0  0  0  0  0  0
   32.6907    7.9591  -19.5672 C   0  0  0  0  0  0  0  0  0  0  0  0
   32.3325    9.2571  -18.8166 C   0  0  0  0  0  0  0  0  0  0  0  0
   32.8493    7.4009  -21.9546 C   0  0  0  0  0  0  0  0  0  0  0  0
   33.5488    7.1990  -23.1349 C   0  0  0  0  0  0  0  0  0  0  0  0
   33.0721    6.3289  -24.0820 C   0  0  0  0  0  0  0  0  0  0  0  0
   31.8720    5.6346  -23.8622 C   0  0  0  0  0  0  0  0  0  0  0  0
   31.1662    5.8449  -22.6648 C   0  0  0  0  0  0  0  0  0  0  0  0
   31.6567    6.7189  -21.7277 C   0  0  0  0  0  0  0  0  0  0  0  0
  1  3  1  0  0  0  0
  2  3  1  0  0  0  0
  4  7  1  0  0  0  0
  4  8  1  0  0  0  0
  4 10  1  0  0  0  0
  1  5  1  0  0  0  0
  6 13  1  0  0  0  0
  5  7  1  0  0  0  0
  1  9  1  0  0  0  0
  8  9  1  0  0  0  0
 10 15  4  0  0  0  0
 10 11  4  0  0  0  0
 11 12  4  0  0  0  0
 12 13  4  0  0  0  0
 13 14  4  0  0  0  0
 14 15  4  0  0  0  0
M  END
$$$$
