7FNB
  PyMOL2.5          3D                             0

 13 13  0  0  0  0  0  0  0  0999 V2000
  -13.7551    7.1316   -4.3215 N   0  0  0  0  0  0  0  0  0  0  0  0
  -12.4926    6.6940   -4.8696 C   0  0  0  0  0  0  0  0  0  0  0  0
  -13.9964    8.6147   -6.0313 O   0  0  0  0  0  0  0  0  0  0  0  0
  -14.0715    6.5400   -3.0563 C   0  0  0  0  0  0  0  0  0  0  0  0
  -16.8463   10.1954   -6.2927 N   0  0  0  0  0  0  0  0  0  0  0  0
  -13.1185    5.6997   -2.5076 C   0  0  0  0  0  0  0  0  0  0  0  0
  -13.3206    5.1438   -1.2600 C   0  0  0  0  0  0  0  0  0  0  0  0
  -14.4738    5.4068   -0.5764 C   0  0  0  0  0  0  0  0  0  0  0  0
  -15.4268    6.2316   -1.1310 C   0  0  0  0  0  0  0  0  0  0  0  0
  -15.2327    6.8081   -2.3650 C   0  0  0  0  0  0  0  0  0  0  0  0
  -14.4862    8.1098   -5.0325 C   0  0  0  0  0  0  0  0  0  0  0  0
  -15.8264    8.5892   -4.5099 C   0  0  0  0  0  0  0  0  0  0  0  0
  -16.4148    9.4979   -5.4916 C   0  0  0  0  0  0  0  0  0  0  0  0
  1  2  1  0  0  0  0
  1  4  1  0  0  0  0
  4  6  4  0  0  0  0
  4 10  4  0  0  0  0
  5 13  3  0  0  0  0
  6  7  4  0  0  0  0
  7  8  4  0  0  0  0
  8  9  4  0  0  0  0
  9 10  4  0  0  0  0
  1 11  1  0  0  0  0
  3 11  2  0  0  0  0
 11 12  1  0  0  0  0
 12 13  1  0  0  0  0
M  END
$$$$
