7FNC
  PyMOL2.5          3D                             0

 16 17  0  0  0  0  0  0  0  0999 V2000
   44.8432  -22.8364  -41.8253 N   0  0  0  0  0  0  0  0  0  0  0  0
   46.7162  -22.3126  -38.6482 C   0  0  0  0  0  0  0  0  0  0  0  0
   46.2944  -23.0422  -46.8732 O   0  0  0  0  0  0  0  0  0  0  0  0
   45.7572  -22.8984  -39.6130 C   0  0  0  0  0  0  0  0  0  0  0  0
   46.5974  -21.5420  -41.6680 N   0  3  0  0  0  0  0  0  0  0  0  0
   44.8855  -23.8534  -39.3170 C   0  0  0  0  0  0  0  0  0  0  0  0
   47.5766  -22.6076  -44.9897 N   0  0  0  0  0  0  0  0  0  0  0  0
   43.9939  -24.3169  -40.2742 C   0  0  0  0  0  0  0  0  0  0  0  0
   43.9775  -23.8119  -41.5154 C   0  0  0  0  0  0  0  0  0  0  0  0
   45.7245  -22.4217  -40.9126 C   0  0  0  0  0  0  0  0  0  0  0  0
   46.1947  -21.4601  -42.9658 C   0  0  0  0  0  0  0  0  0  0  0  0
   45.1666  -22.2495  -43.1349 C   0  0  0  0  0  0  0  0  0  0  0  0
   46.7220  -20.5480  -43.9811 C   0  0  0  0  0  0  0  0  0  0  0  0
   47.6466  -21.1817  -45.0427 C   0  0  0  0  0  0  0  0  0  0  0  0
   46.9238  -23.4439  -45.8790 C   0  0  0  0  0  0  0  0  0  0  0  0
   47.0741  -24.8549  -45.4939 C   0  0  0  0  0  0  0  0  0  0  0  0
  3 15  2  0  0  0  0
  2  4  1  0  0  0  0
  4  6  4  0  0  0  0
  4 10  4  0  0  0  0
  5 10  4  0  0  0  0
  5 11  4  0  0  0  0
  7 14  1  0  0  0  0
  7 15  1  0  0  0  0
  6  8  4  0  0  0  0
  1  9  4  0  0  0  0
  8  9  4  0  0  0  0
  1 10  4  0  0  0  0
  1 12  4  0  0  0  0
 11 12  4  0  0  0  0
 11 13  1  0  0  0  0
 13 14  1  0  0  0  0
 15 16  1  0  0  0  0
M  END
$$$$
