7FNE
  PyMOL2.5          3D                             0

 15 15  0  0  0  0  0  0  0  0999 V2000
   -1.1468   42.0086   21.8638 N   0  0  0  0  0  0  0  0  0  0  0  0
   -0.5159   43.2607   24.4616 C   0  0  0  0  0  0  0  0  0  0  0  0
   -3.3873   42.3866   21.7086 O   0  0  0  0  0  0  0  0  0  0  0  0
   -0.1847   41.8287   24.0728 C   0  0  0  0  0  0  0  0  0  0  0  0
   -1.9871   43.1760   20.0210 N   0  0  0  0  0  0  0  0  0  0  0  0
   -1.2768   41.3013   23.1179 C   0  0  0  0  0  0  0  0  0  0  0  0
   -3.3840   44.8349   17.0610 N   0  0  0  0  0  0  0  0  0  0  0  0
   -1.1551   39.7878   22.8567 C   0  0  0  0  0  0  0  0  0  0  0  0
   -0.1088   39.4961   21.8205 C   0  0  0  0  0  0  0  0  0  0  0  0
   -2.2610   42.5112   21.2344 C   0  0  0  0  0  0  0  0  0  0  0  0
   -2.9517   43.7630   19.1910 C   0  0  0  0  0  0  0  0  0  0  0  0
   -4.2849   43.8681   19.5439 C   0  0  0  0  0  0  0  0  0  0  0  0
   -5.1579   44.4680   18.6425 C   0  0  0  0  0  0  0  0  0  0  0  0
   -4.6795   44.9368   17.4190 C   0  0  0  0  0  0  0  0  0  0  0  0
   -2.5462   44.2566   17.9447 C   0  0  0  0  0  0  0  0  0  0  0  0
  2  4  1  0  0  0  0
  4  6  1  0  0  0  0
  5 10  1  0  0  0  0
  5 11  1  0  0  0  0
  1  6  1  0  0  0  0
  7 14  4  0  0  0  0
  7 15  4  0  0  0  0
  6  8  1  0  0  0  0
  8  9  1  0  0  0  0
  1 10  1  0  0  0  0
  3 10  2  0  0  0  0
 11 15  4  0  0  0  0
 11 12  4  0  0  0  0
 12 13  4  0  0  0  0
 13 14  4  0  0  0  0
M  END
$$$$
