7FNG
  PyMOL2.5          3D                             0

 52 52  0  0  0  0  0  0  0  0999 V2000
    8.7125    3.6757  -34.4206 Cl  0  0  0  0  0  0  0  0  0  0  0  0
   11.2996    4.1093  -37.4658 C   0  0  0  0  0  0  0  0  0  0  0  0
   10.6188    4.5253  -36.1963 C   0  0  0  0  0  0  0  0  0  0  0  0
    9.7687    3.5557  -35.6320 C   0  0  0  0  0  0  0  0  0  0  0  0
    9.7157    2.2877  -36.3174 C   0  0  0  0  0  0  0  0  0  0  0  0
   10.4926    2.0093  -37.4197 C   0  0  0  0  0  0  0  0  0  0  0  0
   11.2927    2.9502  -37.9789 C   0  0  0  0  0  0  0  0  0  0  0  0
   12.3036    2.7494  -39.1094 C   0  0  0  0  0  0  0  0  0  0  0  0
   12.6323    3.6132  -39.8383 O   0  0  0  0  0  0  0  0  0  0  0  0
   12.9059    1.5560  -39.2647 N   0  0  0  0  0  0  0  0  0  0  0  0
   13.8243    1.3271  -40.3496 C   0  0  0  0  0  0  0  0  0  0  0  0
   15.0716    2.1593  -40.1931 C   0  0  0  0  0  0  0  0  0  0  0  0
   15.8865    1.1315  -39.8608 O   0  0  0  0  0  0  0  0  0  0  0  0
    4.7112   -2.0781  -19.1167 Cl  0  0  0  0  0  0  0  0  0  0  0  0
    4.7161   -4.8928  -16.5466 C   0  0  0  0  0  0  0  0  0  0  0  0
    4.9489   -3.7332  -17.2001 C   0  0  0  0  0  0  0  0  0  0  0  0
    4.3117   -3.5081  -18.3560 C   0  0  0  0  0  0  0  0  0  0  0  0
    3.4151   -4.4122  -18.9231 C   0  0  0  0  0  0  0  0  0  0  0  0
    3.1879   -5.6252  -18.2341 C   0  0  0  0  0  0  0  0  0  0  0  0
    3.8505   -5.8259  -17.0267 C   0  0  0  0  0  0  0  0  0  0  0  0
    3.6144   -6.9470  -16.1039 C   0  0  0  0  0  0  0  0  0  0  0  0
    3.7194   -6.7704  -14.9035 O   0  0  0  0  0  0  0  0  0  0  0  0
    3.2651   -8.1715  -16.5627 N   0  0  0  0  0  0  0  0  0  0  0  0
    2.7204   -9.1151  -15.5860 C   0  0  0  0  0  0  0  0  0  0  0  0
    3.7339   -9.4315  -14.4521 C   0  0  0  0  0  0  0  0  0  0  0  0
    3.1624  -10.4203  -13.6245 O   0  0  0  0  0  0  0  0  0  0  0  0
   26.0209   -7.0856   -9.5746 Cl  0  0  0  0  0  0  0  0  0  0  0  0
   28.0196   -9.5034   -7.3300 C   0  0  0  0  0  0  0  0  0  0  0  0
   27.3191   -8.4124   -7.7506 C   0  0  0  0  0  0  0  0  0  0  0  0
   26.9758   -8.3620   -9.0605 C   0  0  0  0  0  0  0  0  0  0  0  0
   27.3206   -9.3230   -9.9538 C   0  0  0  0  0  0  0  0  0  0  0  0
   28.0187  -10.4144   -9.5149 C   0  0  0  0  0  0  0  0  0  0  0  0
   28.3517  -10.5033   -8.2033 C   0  0  0  0  0  0  0  0  0  0  0  0
   29.0169  -11.7233   -7.6729 C   0  0  0  0  0  0  0  0  0  0  0  0
   29.8468  -11.6849   -6.7833 O   0  0  0  0  0  0  0  0  0  0  0  0
   28.5843  -12.8945   -8.2692 N   0  0  0  0  0  0  0  0  0  0  0  0
   28.7395  -14.1925   -7.6520 C   0  0  0  0  0  0  0  0  0  0  0  0
   29.9599  -14.8833   -8.2377 C   0  0  0  0  0  0  0  0  0  0  0  0
   29.4441  -15.6353   -9.2348 O   0  0  0  0  0  0  0  0  0  0  0  0
   23.3604    9.8009  -12.5929 Cl  0  0  0  0  0  0  0  0  0  0  0  0
   25.7348   12.4593  -11.2189 C   0  0  0  0  0  0  0  0  0  0  0  0
   24.6111   11.7473  -11.5115 C   0  0  0  0  0  0  0  0  0  0  0  0
   24.7473   10.5976  -12.1418 C   0  0  0  0  0  0  0  0  0  0  0  0
   25.9421   10.0761  -12.4876 C   0  0  0  0  0  0  0  0  0  0  0  0
   27.0775   10.7755  -12.1833 C   0  0  0  0  0  0  0  0  0  0  0  0
   26.9670   11.9783  -11.5405 C   0  0  0  0  0  0  0  0  0  0  0  0
   28.1117   12.8217  -11.1156 C   0  0  0  0  0  0  0  0  0  0  0  0
   27.9873   13.9591  -10.9606 O   0  0  0  0  0  0  0  0  0  0  0  0
   29.2881   12.2323  -10.8575 N   0  0  0  0  0  0  0  0  0  0  0  0
   30.3280   12.2478  -11.8009 C   0  0  0  0  0  0  0  0  0  0  0  0
   31.1096   13.5297  -11.8200 C   0  0  0  0  0  0  0  0  0  0  0  0
   32.0997   13.1718  -12.6544 O   0  0  0  0  0  0  0  0  0  0  0  0
  2  3  4  0  0  0  0
  1  4  1  0  0  0  0
  3  4  4  0  0  0  0
  4  5  4  0  0  0  0
  5  6  4  0  0  0  0
  2  7  4  0  0  0  0
  6  7  4  0  0  0  0
  7  8  1  0  0  0  0
  8 10  1  0  0  0  0
  8  9  2  0  0  0  0
 10 11  1  0  0  0  0
 11 12  1  0  0  0  0
 12 13  1  0  0  0  0
 15 16  4  0  0  0  0
 14 17  1  0  0  0  0
 16 17  4  0  0  0  0
 17 18  4  0  0  0  0
 18 19  4  0  0  0  0
 15 20  4  0  0  0  0
 19 20  4  0  0  0  0
 20 21  1  0  0  0  0
 21 23  1  0  0  0  0
 21 22  2  0  0  0  0
 23 24  1  0  0  0  0
 24 25  1  0  0  0  0
 25 26  1  0  0  0  0
 28 29  4  0  0  0  0
 27 30  1  0  0  0  0
 29 30  4  0  0  0  0
 30 31  4  0  0  0  0
 31 32  4  0  0  0  0
 28 33  4  0  0  0  0
 32 33  4  0  0  0  0
 33 34  1  0  0  0  0
 34 36  1  0  0  0  0
 34 35  2  0  0  0  0
 36 37  1  0  0  0  0
 37 38  1  0  0  0  0
 38 39  1  0  0  0  0
 41 42  4  0  0  0  0
 40 43  1  0  0  0  0
 42 43  4  0  0  0  0
 43 44  4  0  0  0  0
 44 45  4  0  0  0  0
 41 46  4  0  0  0  0
 45 46  4  0  0  0  0
 46 47  1  0  0  0  0
 47 49  1  0  0  0  0
 47 48  2  0  0  0  0
 49 50  1  0  0  0  0
 50 51  1  0  0  0  0
 51 52  1  0  0  0  0
M  END
$$$$
