7FNJ
  PyMOL2.5          3D                             0

 16 17  0  0  0  0  0  0  0  0999 V2000
   19.0601   22.1225   28.3067 N   0  3  0  0  0  0  0  0  0  0  0  0
   23.0211   25.6253   31.8534 C   0  0  0  0  0  0  0  0  0  0  0  0
   23.4462   25.2808   30.5713 O   0  0  0  0  0  0  0  0  0  0  0  0
   22.9967   24.0921   30.1831 C   0  0  0  0  0  0  0  0  0  0  0  0
   20.8092   25.0242   30.4186 O   0  0  0  0  0  0  0  0  0  0  0  0
   23.7960   23.0282   29.9069 C   0  0  0  0  0  0  0  0  0  0  0  0
   23.2051   21.8578   29.4961 C   0  0  0  0  0  0  0  0  0  0  0  0
   21.8381   21.7712   29.3679 C   0  0  0  0  0  0  0  0  0  0  0  0
   21.0340   22.8431   29.6616 C   0  0  0  0  0  0  0  0  0  0  0  0
   21.6284   24.0156   30.0763 C   0  0  0  0  0  0  0  0  0  0  0  0
   19.5462   22.7611   29.6032 C   0  0  0  0  0  0  0  0  0  0  0  0
   17.5368   22.3067   28.1663 C   0  0  0  0  0  0  0  0  0  0  0  0
   17.1418   23.1344   26.9232 C   0  0  0  0  0  0  0  0  0  0  0  0
   16.1256   22.2787   26.1649 C   0  0  0  0  0  0  0  0  0  0  0  0
   15.5791   21.3140   27.2125 C   0  0  0  0  0  0  0  0  0  0  0  0
   16.7945   20.9727   28.0695 C   0  0  0  0  0  0  0  0  0  0  0  0
  2  3  1  0  0  0  0
  3  4  1  0  0  0  0
  4  6  4  0  0  0  0
  4 10  4  0  0  0  0
  5 10  1  0  0  0  0
  6  7  4  0  0  0  0
  7  8  4  0  0  0  0
  8  9  4  0  0  0  0
  9 10  4  0  0  0  0
  1 11  1  0  0  0  0
  9 11  1  0  0  0  0
  1 12  1  0  0  0  0
 12 13  1  0  0  0  0
 12 16  1  0  0  0  0
 13 14  1  0  0  0  0
 14 15  1  0  0  0  0
 15 16  1  0  0  0  0
M  END
$$$$
