7FNN
  PyMOL2.5          3D                             0

 15 16  0  0  0  0  0  0  0  0999 V2000
   -3.8470   45.8915  -26.5206 N   0  0  0  0  0  0  0  0  0  0  0  0
   -8.1524   43.1215  -23.1603 C   0  0  0  0  0  0  0  0  0  0  0  0
   -4.8174   45.4929  -24.1020 O   0  0  0  0  0  0  0  0  0  0  0  0
   -7.1870   44.0540  -23.4879 C   0  0  0  0  0  0  0  0  0  0  0  0
   -2.5074   47.6487  -26.2477 N   0  0  0  0  0  0  0  0  0  0  0  0
   -6.4304   43.8770  -24.6259 C   0  0  0  0  0  0  0  0  0  0  0  0
   -2.7133   45.5635  -27.2112 N   0  0  0  0  0  0  0  0  0  0  0  0
   -6.6215   42.7935  -25.4571 C   0  0  0  0  0  0  0  0  0  0  0  0
   -7.5992   41.8716  -25.1054 C   0  0  0  0  0  0  0  0  0  0  0  0
   -8.3684   42.0211  -23.9624 C   0  0  0  0  0  0  0  0  0  0  0  0
   -5.3728   44.8378  -24.9581 C   0  0  0  0  0  0  0  0  0  0  0  0
   -4.9896   44.9746  -26.4297 C   0  0  0  0  0  0  0  0  0  0  0  0
   -3.7209   47.1615  -25.9386 C   0  0  0  0  0  0  0  0  0  0  0  0
   -1.9128   46.6435  -27.0316 C   0  0  0  0  0  0  0  0  0  0  0  0
   -7.8012   40.8255  -25.8753 F   0  0  0  0  0  0  0  0  0  0  0  0
  2  4  4  0  0  0  0
  4  6  4  0  0  0  0
  5 13  4  0  0  0  0
  5 14  4  0  0  0  0
  1  7  4  0  0  0  0
  7 14  4  0  0  0  0
  6  8  4  0  0  0  0
  8  9  4  0  0  0  0
  9 15  1  0  0  0  0
  2 10  4  0  0  0  0
  9 10  4  0  0  0  0
  3 11  2  0  0  0  0
  6 11  1  0  0  0  0
  1 12  1  0  0  0  0
 11 12  1  0  0  0  0
  1 13  4  0  0  0  0
M  END
$$$$
