7FNQ
  PyMOL2.5          3D                             0

 15 15  0  0  0  0  0  0  0  0999 V2000
    4.0840    2.4132   15.9581 N   0  0  0  0  0  0  0  0  0  0  0  0
   -0.3726    4.1074   14.5111 C   0  0  0  0  0  0  0  0  0  0  0  0
    2.3148    0.9448   15.8125 O   0  0  0  0  0  0  0  0  0  0  0  0
    0.3781    2.8667   15.0032 C   0  0  0  0  0  0  0  0  0  0  0  0
    6.3736    1.8764   16.4833 N   0  0  0  0  0  0  0  0  0  0  0  0
   -1.8202    1.4070   14.8434 O   0  0  0  0  0  0  0  0  0  0  0  0
    1.8752    3.2011   15.1344 C   0  0  0  0  0  0  0  0  0  0  0  0
   -2.5487    2.1517   16.7898 O   0  5  0  0  0  0  0  0  0  0  0  0
    2.7373    2.0661   15.6562 C   0  0  0  0  0  0  0  0  0  0  0  0
    5.1111    1.5368   16.2050 C   0  0  0  0  0  0  0  0  0  0  0  0
    7.1317    0.7187   16.6869 C   0  0  0  0  0  0  0  0  0  0  0  0
    6.4638   -0.4504   16.5703 C   0  0  0  0  0  0  0  0  0  0  0  0
   -0.2317    2.4152   16.3137 C   0  0  0  0  0  0  0  0  0  0  0  0
   -1.6602    1.9454   15.9454 C   0  0  0  0  0  0  0  0  0  0  0  0
    4.8177   -0.2096   16.1837 S   0  0  0  0  0  0  0  0  0  0  0  0
  2  4  1  0  0  0  0
  4  7  1  0  0  0  0
  5 10  4  0  0  0  0
  5 11  4  0  0  0  0
  1  9  1  0  0  0  0
  3  9  2  0  0  0  0
  7  9  1  0  0  0  0
  1 10  1  0  0  0  0
 10 15  4  0  0  0  0
 11 12  4  0  0  0  0
 12 15  4  0  0  0  0
  4 13  1  0  0  0  0
 13 14  1  0  0  0  0
  6 14  4  0  0  0  0
  8 14  4  0  0  0  0
M  END
$$$$
