7FNY
  PyMOL2.5          3D                             0

 14 14  0  0  0  0  0  0  0  0999 V2000
    0.4792   -5.0836    1.2317 C   0  0  0  0  0  0  0  0  0  0  0  0
    0.4741   -5.0229    3.2997 O   0  0  0  0  0  0  0  0  0  0  0  0
    1.1380   -5.2861    2.4743 C   0  0  0  0  0  0  0  0  0  0  0  0
    2.4867   -5.4378    2.8609 O   0  0  0  0  0  0  0  0  0  0  0  0
    3.5499   -4.9596    2.1612 C   0  0  0  0  0  0  0  0  0  0  0  0
    9.0371   -7.5363    1.7251 O   0  0  0  0  0  0  0  0  0  0  0  0
    4.8717   -5.5268    2.1488 C   0  0  0  0  0  0  0  0  0  0  0  0
    9.1969   -6.2158    0.3620 O   0  5  0  0  0  0  0  0  0  0  0  0
    5.4827   -6.2747    3.0802 C   0  0  0  0  0  0  0  0  0  0  0  0
    6.7746   -6.7026    2.7788 C   0  0  0  0  0  0  0  0  0  0  0  0
    7.3154   -6.3288    1.5755 C   0  0  0  0  0  0  0  0  0  0  0  0
    6.6612   -5.6581    0.8054 C   0  0  0  0  0  0  0  0  0  0  0  0
    5.4668   -5.2480    1.0660 C   0  0  0  0  0  0  0  0  0  0  0  0
    8.6442   -6.7007    1.1626 C   0  0  0  0  0  0  0  0  0  0  0  0
  1  3  1  0  0  0  0
  2  3  1  0  0  0  0
  3  4  1  0  0  0  0
  4  5  1  0  0  0  0
  5  7  1  0  0  0  0
  7  9  4  0  0  0  0
  9 10  4  0  0  0  0
 10 11  4  0  0  0  0
 11 12  4  0  0  0  0
 12 13  4  0  0  0  0
  7 13  4  0  0  0  0
  6 14  4  0  0  0  0
  8 14  4  0  0  0  0
 11 14  1  0  0  0  0
M  END
$$$$
