7FOA
  PyMOL2.5          3D                             0

 30 32  0  0  0  0  0  0  0  0999 V2000
   24.4431  -33.4342  -23.0967 N   0  0  0  0  0  0  0  0  0  0  0  0
   19.7472  -34.8797  -19.5211 C   0  0  0  0  0  0  0  0  0  0  0  0
   22.8386  -33.9095  -21.0389 O   0  0  0  0  0  0  0  0  0  0  0  0
   20.6828  -34.5350  -20.4697 C   0  0  0  0  0  0  0  0  0  0  0  0
   25.9909  -32.8074  -21.5457 O   0  0  0  0  0  0  0  0  0  0  0  0
   21.9796  -34.2825  -20.0583 C   0  0  0  0  0  0  0  0  0  0  0  0
   22.3746  -34.3712  -18.7413 C   0  0  0  0  0  0  0  0  0  0  0  0
   21.4011  -34.7137  -17.8199 C   0  0  0  0  0  0  0  0  0  0  0  0
   20.0898  -34.9715  -18.1867 C   0  0  0  0  0  0  0  0  0  0  0  0
   24.1921  -34.1403  -20.7432 C   0  0  0  0  0  0  0  0  0  0  0  0
   24.9661  -33.3968  -21.8281 C   0  0  0  0  0  0  0  0  0  0  0  0
   25.0803  -32.7660  -24.1921 C   0  0  0  0  0  0  0  0  0  0  0  0
   25.9122  -33.5903  -25.1568 C   0  0  0  0  0  0  0  0  0  0  0  0
   26.5946  -32.6705  -24.1773 C   0  0  0  0  0  0  0  0  0  0  0  0
   21.7344  -34.7867  -16.5494 F   0  0  0  0  0  0  0  0  0  0  0  0
   11.9065  -17.0544    0.0126 N   0  0  0  0  0  0  0  0  0  0  0  0
   17.5313  -13.8785   -0.2695 C   0  0  0  0  0  0  0  0  0  0  0  0
   14.7942  -15.9783   -0.9501 O   0  0  0  0  0  0  0  0  0  0  0  0
   16.7894  -15.0093   -0.4789 C   0  0  0  0  0  0  0  0  0  0  0  0
   13.4542  -18.5501   -0.6962 O   0  0  0  0  0  0  0  0  0  0  0  0
   15.4850  -14.8432   -0.7279 C   0  0  0  0  0  0  0  0  0  0  0  0
   14.9039  -13.6159   -0.7738 C   0  0  0  0  0  0  0  0  0  0  0  0
   15.6537  -12.5108   -0.5873 C   0  0  0  0  0  0  0  0  0  0  0  0
   16.9830  -12.6139   -0.3169 C   0  0  0  0  0  0  0  0  0  0  0  0
   14.3012  -16.5449    0.2004 C   0  0  0  0  0  0  0  0  0  0  0  0
   13.1875  -17.4699   -0.2141 C   0  0  0  0  0  0  0  0  0  0  0  0
   10.8339  -17.8983   -0.3745 C   0  0  0  0  0  0  0  0  0  0  0  0
   10.9658  -19.3784   -0.0481 C   0  0  0  0  0  0  0  0  0  0  0  0
    9.9146  -18.5544    0.6177 C   0  0  0  0  0  0  0  0  0  0  0  0
   15.1085  -11.3377   -0.7414 F   0  0  0  0  0  0  0  0  0  0  0  0
  2  4  4  0  0  0  0
  4  6  4  0  0  0  0
  3  6  1  0  0  0  0
  6  7  4  0  0  0  0
  7  8  4  0  0  0  0
  8 15  1  0  0  0  0
  2  9  4  0  0  0  0
  8  9  4  0  0  0  0
  3 10  1  0  0  0  0
  1 11  1  0  0  0  0
  5 11  2  0  0  0  0
 10 11  1  0  0  0  0
  1 12  1  0  0  0  0
 12 13  1  0  0  0  0
 12 14  1  0  0  0  0
 13 14  1  0  0  0  0
 17 19  4  0  0  0  0
 19 21  4  0  0  0  0
 18 21  1  0  0  0  0
 21 22  4  0  0  0  0
 22 23  4  0  0  0  0
 23 30  1  0  0  0  0
 17 24  4  0  0  0  0
 23 24  4  0  0  0  0
 18 25  1  0  0  0  0
 16 26  1  0  0  0  0
 20 26  2  0  0  0  0
 25 26  1  0  0  0  0
 16 27  1  0  0  0  0
 27 28  1  0  0  0  0
 27 29  1  0  0  0  0
 28 29  1  0  0  0  0
M  END
$$$$
