7FOB
  PyMOL2.5          3D                             0

 13 13  0  0  0  0  0  0  0  0999 V2000
   31.7650   30.8988   72.0661 N   0  3  0  0  0  0  0  0  0  0  0  0
   33.0169   31.5903   71.5708 C   0  0  0  0  0  0  0  0  0  0  0  0
   31.0566   32.2179   69.6700 O   0  0  0  0  0  0  0  0  0  0  0  0
   31.0524   30.1723   70.9279 C   0  0  0  0  0  0  0  0  0  0  0  0
   29.2214   30.8548   69.4663 N   0  0  0  0  0  0  0  0  0  0  0  0
   30.4386   31.2013   69.9435 C   0  0  0  0  0  0  0  0  0  0  0  0
   28.4853   31.6409   68.5432 C   0  0  0  0  0  0  0  0  0  0  0  0
   27.1386   31.3478   68.4107 C   0  0  0  0  0  0  0  0  0  0  0  0
   26.3841   32.0436   67.4904 C   0  0  0  0  0  0  0  0  0  0  0  0
   26.9501   33.0235   66.7106 C   0  0  0  0  0  0  0  0  0  0  0  0
   28.2954   33.3025   66.8648 C   0  0  0  0  0  0  0  0  0  0  0  0
   29.1004   32.6229   67.7833 C   0  0  0  0  0  0  0  0  0  0  0  0
   28.8210   34.2477   66.1182 F   0  0  0  0  0  0  0  0  0  0  0  0
  1  2  1  0  0  0  0
  1  4  1  0  0  0  0
  4  6  1  0  0  0  0
  5  6  1  0  0  0  0
  5  7  1  0  0  0  0
  3  6  2  0  0  0  0
  7  8  4  0  0  0  0
  8  9  4  0  0  0  0
  9 10  4  0  0  0  0
 10 11  4  0  0  0  0
 11 12  4  0  0  0  0
 11 13  1  0  0  0  0
  7 12  4  0  0  0  0
M  END
$$$$
