7FOL
  PyMOL2.5          3D                             0

 12 12  0  0  0  0  0  0  0  0999 V2000
    8.6332   61.8295  -27.4757 N   0  0  0  0  0  0  0  0  0  0  0  0
   11.4937   62.6129  -26.1258 C   0  0  0  0  0  0  0  0  0  0  0  0
    9.7281   61.4727  -29.4307 O   0  0  0  0  0  0  0  0  0  0  0  0
   11.7102   63.0643  -27.5579 C   0  0  0  0  0  0  0  0  0  0  0  0
   10.3669   63.4325  -28.1988 C   0  0  0  0  0  0  0  0  0  0  0  0
    9.5645   62.1635  -28.4400 C   0  0  0  0  0  0  0  0  0  0  0  0
    7.7979   60.6341  -27.5839 C   0  0  0  0  0  0  0  0  0  0  0  0
    8.3363   59.6065  -26.6699 C   0  0  0  0  0  0  0  0  0  0  0  0
    7.7923   59.1762  -25.5211 C   0  0  0  0  0  0  0  0  0  0  0  0
    8.6161   58.1885  -24.8842 C   0  0  0  0  0  0  0  0  0  0  0  0
    9.7210   57.9364  -25.5873 C   0  0  0  0  0  0  0  0  0  0  0  0
    9.8063   58.8528  -27.0025 S   0  0  0  0  0  0  0  0  0  0  0  0
  2  4  1  0  0  0  0
  4  5  1  0  0  0  0
  1  6  1  0  0  0  0
  3  6  2  0  0  0  0
  5  6  1  0  0  0  0
  1  7  1  0  0  0  0
  7  8  1  0  0  0  0
  8  9  4  0  0  0  0
  8 12  4  0  0  0  0
  9 10  4  0  0  0  0
 10 11  4  0  0  0  0
 11 12  4  0  0  0  0
M  END
$$$$
