7FOS
  PyMOL2.5          3D                             0

 14 14  0  0  0  0  0  0  0  0999 V2000
   33.7923   47.1783  -21.1900 N   0  3  0  0  0  0  0  0  0  0  0  0
   37.7696   45.2541  -28.8591 C   0  0  0  0  0  0  0  0  0  0  0  0
   36.8462   47.2362  -23.7500 O   0  0  0  0  0  0  0  0  0  0  0  0
   37.5153   45.7799  -27.5279 C   0  0  0  0  0  0  0  0  0  0  0  0
   36.3306   46.8357  -20.4395 O   0  0  0  0  0  0  0  0  0  0  0  0
   37.4041   44.9163  -26.4620 C   0  0  0  0  0  0  0  0  0  0  0  0
   37.1268   45.3849  -25.2031 C   0  0  0  0  0  0  0  0  0  0  0  0
   36.9687   46.7174  -25.0107 C   0  0  0  0  0  0  0  0  0  0  0  0
   37.0545   47.6054  -26.0759 C   0  0  0  0  0  0  0  0  0  0  0  0
   37.3457   47.1148  -27.3270 C   0  0  0  0  0  0  0  0  0  0  0  0
   36.8012   49.0498  -25.8577 C   0  0  0  0  0  0  0  0  0  0  0  0
   36.1820   46.5267  -22.8207 C   0  0  0  0  0  0  0  0  0  0  0  0
   36.2018   47.4752  -21.6157 C   0  0  0  0  0  0  0  0  0  0  0  0
   34.8666   48.2039  -21.5411 C   0  0  0  0  0  0  0  0  0  0  0  0
  2  4  1  0  0  0  0
  4  6  4  0  0  0  0
  4 10  4  0  0  0  0
  6  7  4  0  0  0  0
  3  8  1  0  0  0  0
  7  8  4  0  0  0  0
  8  9  4  0  0  0  0
  9 10  4  0  0  0  0
  9 11  1  0  0  0  0
  3 12  1  0  0  0  0
 12 13  1  0  0  0  0
  5 13  1  0  0  0  0
 13 14  1  0  0  0  0
  1 14  1  0  0  0  0
M  END
$$$$
