7FP5
  PyMOL2.5          3D                             0

 16 16  0  0  0  0  0  0  0  0999 V2000
   23.0546   -3.0337   -2.3065 N   0  0  0  0  0  0  0  0  0  0  0  0
   22.1584   -0.8240   -2.4030 C   0  0  0  0  0  0  0  0  0  0  0  0
   19.8875   -3.3363   -3.1261 O   0  0  0  0  0  0  0  0  0  0  0  0
   21.8080   -2.2888   -2.3554 C   0  0  0  0  0  0  0  0  0  0  0  0
   24.8354   -5.1059   -2.5450 N   0  0  0  0  0  0  0  0  0  0  0  0
   23.4654   -3.0295   -4.5280 O   0  0  0  0  0  0  0  0  0  0  0  0
   20.9688   -2.6207   -3.6015 C   0  0  0  0  0  0  0  0  0  0  0  0
   25.7967   -5.9733   -2.4458 N   0  0  0  0  0  0  0  0  0  0  0  0
   27.7111   -6.7756   -3.0196 O   0  0  0  0  0  0  0  0  0  0  0  0
   19.2204   -2.6954   -2.0646 C   0  0  0  0  0  0  0  0  0  0  0  0
   23.7811   -3.3158   -3.4255 C   0  0  0  0  0  0  0  0  0  0  0  0
   25.0121   -4.0681   -3.1871 C   0  0  0  0  0  0  0  0  0  0  0  0
   26.9230   -5.9394   -3.2023 C   0  0  0  0  0  0  0  0  0  0  0  0
   27.0739   -4.8257   -4.1910 C   0  0  0  0  0  0  0  0  0  0  0  0
   26.2599   -3.6219   -3.7928 C   0  0  0  0  0  0  0  0  0  0  0  0
   25.5934   -7.0486   -1.4789 C   0  0  0  0  0  0  0  0  0  0  0  0
  1  4  1  0  0  0  0
  2  4  1  0  0  0  0
  4  7  1  0  0  0  0
  5  8  1  0  0  0  0
  5 12  1  0  0  0  0
  6 11  2  0  0  0  0
  3  7  1  0  0  0  0
  8 13  1  0  0  0  0
  8 16  1  0  0  0  0
  3 10  1  0  0  0  0
  1 11  1  0  0  0  0
 11 12  1  0  0  0  0
  9 13  2  0  0  0  0
 13 14  1  0  0  0  0
 14 15  1  0  0  0  0
 12 15  1  0  0  0  0
M  END
$$$$
