7FPA
  PyMOL2.5          3D                             0

 32 32  0  0  0  0  0  0  0  0999 V2000
   -0.2144   74.2677   -9.6960 N   0  0  0  0  0  0  0  0  0  0  0  0
   -1.2304   74.6544  -11.9324 C   0  0  0  0  0  0  0  0  0  0  0  0
   -1.9202   72.0778  -11.4943 O   0  0  0  0  0  0  0  0  0  0  0  0
    2.2475   73.9071   -7.6355 Cl  0  0  0  0  0  0  0  0  0  0  0  0
   -0.0636   73.8870   -2.9462 Cl  0  0  0  0  0  0  0  0  0  0  0  0
    0.0430   74.5636  -11.1177 C   0  0  0  0  0  0  0  0  0  0  0  0
    0.5772   76.2410   -9.1039 O   0  0  0  0  0  0  0  0  0  0  0  0
   -0.9284   73.0149   -9.4239 C   0  0  0  0  0  0  0  0  0  0  0  0
   -0.8016   72.1153  -10.7068 C   0  0  0  0  0  0  0  0  0  0  0  0
    0.1394   75.1954   -8.7234 C   0  0  0  0  0  0  0  0  0  0  0  0
   -0.0168   74.9844   -7.2725 C   0  0  0  0  0  0  0  0  0  0  0  0
   -1.1035   75.3728   -6.5809 C   0  0  0  0  0  0  0  0  0  0  0  0
   -1.1277   75.1480   -5.2100 C   0  0  0  0  0  0  0  0  0  0  0  0
    0.0155   74.5034   -4.5517 C   0  0  0  0  0  0  0  0  0  0  0  0
    1.1061   74.1784   -5.2689 C   0  0  0  0  0  0  0  0  0  0  0  0
    1.0457   74.4078   -6.6135 C   0  0  0  0  0  0  0  0  0  0  0  0
   -0.8733   67.2258   17.4430 N   0  0  0  0  0  0  0  0  0  0  0  0
    1.1148   66.4406   18.6711 C   0  0  0  0  0  0  0  0  0  0  0  0
   -3.0014   64.2687   17.8539 O   0  0  0  0  0  0  0  0  0  0  0  0
   -1.8356   69.7737   14.9019 Cl  0  0  0  0  0  0  0  0  0  0  0  0
    2.3618   68.6345   11.7645 Cl  0  0  0  0  0  0  0  0  0  0  0  0
    0.3938   67.6198   18.0556 C   0  0  0  0  0  0  0  0  0  0  0  0
   -2.3579   67.2185   15.7601 O   0  0  0  0  0  0  0  0  0  0  0  0
   -1.8394   66.4770   18.2408 C   0  0  0  0  0  0  0  0  0  0  0  0
   -1.8670   65.0518   17.5593 C   0  0  0  0  0  0  0  0  0  0  0  0
   -1.2104   67.3657   16.1183 C   0  0  0  0  0  0  0  0  0  0  0  0
   -0.2440   67.7533   15.1155 C   0  0  0  0  0  0  0  0  0  0  0  0
    0.7846   66.9184   14.7779 C   0  0  0  0  0  0  0  0  0  0  0  0
    1.5969   67.2087   13.7305 C   0  0  0  0  0  0  0  0  0  0  0  0
    1.3723   68.3453   13.0527 C   0  0  0  0  0  0  0  0  0  0  0  0
    0.3620   69.2379   13.3690 C   0  0  0  0  0  0  0  0  0  0  0  0
   -0.4593   68.8832   14.4388 C   0  0  0  0  0  0  0  0  0  0  0  0
  1  6  1  0  0  0  0
  2  6  1  0  0  0  0
  7 10  2  0  0  0  0
  1  8  1  0  0  0  0
  3  9  1  0  0  0  0
  8  9  1  0  0  0  0
  1 10  1  0  0  0  0
 10 11  1  0  0  0  0
 11 12  4  0  0  0  0
 11 16  4  0  0  0  0
 12 13  4  0  0  0  0
 13 14  4  0  0  0  0
  5 14  1  0  0  0  0
 14 15  4  0  0  0  0
 15 16  4  0  0  0  0
  4 16  1  0  0  0  0
 17 22  1  0  0  0  0
 18 22  1  0  0  0  0
 23 26  2  0  0  0  0
 17 24  1  0  0  0  0
 19 25  1  0  0  0  0
 24 25  1  0  0  0  0
 17 26  1  0  0  0  0
 26 27  1  0  0  0  0
 27 28  4  0  0  0  0
 27 32  4  0  0  0  0
 28 29  4  0  0  0  0
 29 30  4  0  0  0  0
 21 30  1  0  0  0  0
 30 31  4  0  0  0  0
 31 32  4  0  0  0  0
 20 32  1  0  0  0  0
M  END
$$$$
