7FR8
  PyMOL2.5          3D                             0

 33 35  0  0  0  0  0  0  0  0999 V2000
  -38.5399   -0.5266    2.5770 C   0  0  0  0  0  0  0  0  0  0  0  0
  -39.4480   -1.7691    2.4117 C   0  0  0  0  0  0  0  0  0  0  0  0
  -39.7875   -1.8393    0.9364 C   0  0  0  0  0  0  0  0  0  0  0  0
  -40.8976   -2.7140    0.6282 N   0  0  0  0  0  0  0  0  0  0  0  0
  -40.9349   -3.7670   -0.3951 C   0  0  0  0  0  0  0  0  0  0  0  0
  -39.7691   -4.0475   -1.3191 C   0  0  0  0  0  0  0  0  0  0  0  0
  -39.6767   -3.2964   -2.5334 C   0  0  0  0  0  0  0  0  0  0  0  0
  -40.4621   -2.3051   -3.0635 N   0  0  0  0  0  0  0  0  0  0  0  0
  -39.9252   -1.9399   -4.2264 C   0  0  0  0  0  0  0  0  0  0  0  0
  -40.4645   -0.9113   -5.0979 O   0  0  0  0  0  0  0  0  0  0  0  0
  -38.8312   -2.6693   -4.4408 N   0  0  0  0  0  0  0  0  0  0  0  0
  -38.6522   -3.5333   -3.3883 C   0  0  0  0  0  0  0  0  0  0  0  0
  -37.7215   -4.4589   -3.1274 N   0  0  0  0  0  0  0  0  0  0  0  0
  -37.7962   -5.1659   -2.0063 C   0  0  0  0  0  0  0  0  0  0  0  0
  -38.8244   -4.9903   -1.0608 C   0  0  0  0  0  0  0  0  0  0  0  0
  -41.9333   -4.4095   -0.5291 O   0  0  0  0  0  0  0  0  0  0  0  0
  -42.0256   -2.4578    1.4852 C   0  0  0  0  0  0  0  0  0  0  0  0
  -41.6233   -2.5844    2.9318 C   0  0  0  0  0  0  0  0  0  0  0  0
  -40.5863   -1.6671    3.2625 O   0  0  0  0  0  0  0  0  0  0  0  0
  -39.0713    0.2441    3.1047 H   0  0  0  0  0  0  0  0  0  0  0  0
  -38.2448   -0.1476    1.5829 H   0  0  0  0  0  0  0  0  0  0  0  0
  -37.6499   -0.8005    3.1299 H   0  0  0  0  0  0  0  0  0  0  0  0
  -38.8905   -2.6494    2.6896 H   0  0  0  0  0  0  0  0  0  0  0  0
  -40.0232   -0.8400    0.5959 H   0  0  0  0  0  0  0  0  0  0  0  0
  -38.9077   -2.1586    0.4137 H   0  0  0  0  0  0  0  0  0  0  0  0
  -41.1053   -0.4041   -4.5952 H   0  0  0  0  0  0  0  0  0  0  0  0
  -38.2415   -2.5976   -5.2248 H   0  0  0  0  0  0  0  0  0  0  0  0
  -37.0534   -5.9024   -1.8226 H   0  0  0  0  0  0  0  0  0  0  0  0
  -38.8559   -5.5613   -0.1651 H   0  0  0  0  0  0  0  0  0  0  0  0
  -42.4091   -1.4628    1.2955 H   0  0  0  0  0  0  0  0  0  0  0  0
  -42.8124   -3.1549    1.2500 H   0  0  0  0  0  0  0  0  0  0  0  0
  -41.2791   -3.6194    3.1095 H   0  0  0  0  0  0  0  0  0  0  0  0
  -42.4860   -2.4097    3.5498 H   0  0  0  0  0  0  0  0  0  0  0  0
  1  2  1  0  0  0  0
  1 20  1  0  0  0  0
  1 21  1  0  0  0  0
  1 22  1  0  0  0  0
  2  3  1  0  0  0  0
  2 19  1  0  0  0  0
  2 23  1  0  0  0  0
  3  4  1  0  0  0  0
  3 24  1  0  0  0  0
  3 25  1  0  0  0  0
  4  5  1  0  0  0  0
  5  6  1  0  0  0  0
  5 16  2  0  0  0  0
  6  7  4  0  0  0  0
  7  8  4  0  0  0  0
  8  9  4  0  0  0  0
  9 10  1  0  0  0  0
  9 11  4  0  0  0  0
 10 26  1  0  0  0  0
 11 27  1  0  0  0  0
  7 12  4  0  0  0  0
 11 12  4  0  0  0  0
 12 13  4  0  0  0  0
 13 14  4  0  0  0  0
 14 28  1  0  0  0  0
  6 15  4  0  0  0  0
 14 15  4  0  0  0  0
 15 29  1  0  0  0  0
  4 17  1  0  0  0  0
 17 30  1  0  0  0  0
 17 31  1  0  0  0  0
 17 18  1  0  0  0  0
 18 19  1  0  0  0  0
 18 32  1  0  0  0  0
 18 33  1  0  0  0  0
M  END
$$$$
