7PZT
  PyMOL2.5          3D                             0

 25 25  0  0  0  0  0  0  0  0999 V2000
  -38.0503   18.9730  -37.3510 O   0  0  0  0  0  0  0  0  0  0  0  0
  -40.6905   14.6273  -41.8516 O   0  0  0  0  0  0  0  0  0  0  0  0
  -37.8474   17.7197  -36.7166 C   0  0  0  0  0  0  0  0  0  0  0  0
  -39.5010   12.6924  -41.1176 O   0  0  0  0  0  0  0  0  0  0  0  0
  -37.7935   16.5939  -37.7176 C   0  0  0  0  0  0  0  0  0  0  0  0
  -41.8023   12.9825  -40.5122 O   0  0  0  0  0  0  0  0  0  0  0  0
  -39.0444   16.5762  -38.5342 N   0  0  0  0  0  0  0  0  0  0  0  0
  -39.2801   17.9197  -39.1415 C   0  0  0  0  0  0  0  0  0  0  0  0
  -39.2779   18.9742  -38.0650 C   0  0  0  0  0  0  0  0  0  0  0  0
  -39.0113   15.5009  -39.5748 C   0  0  0  0  0  0  0  0  0  0  0  0
  -40.0861   14.4676  -39.3431 C   0  0  0  0  0  0  0  0  0  0  0  0
  -40.5569   13.6266  -40.8323 S   0  0  0  0  0  0  0  0  0  0  0  0
  -39.7412   16.3997  -37.9702 H   0  0  0  0  0  0  0  0  0  0  0  0
  -37.0014   17.7451  -36.2058 H   0  0  0  0  0  0  0  0  0  0  0  0
  -38.5862   17.5531  -36.0801 H   0  0  0  0  0  0  0  0  0  0  0  0
  -37.7030   15.7282  -37.2491 H   0  0  0  0  0  0  0  0  0  0  0  0
  -37.0169   16.7132  -38.3187 H   0  0  0  0  0  0  0  0  0  0  0  0
  -40.1524   17.9118  -39.6070 H   0  0  0  0  0  0  0  0  0  0  0  0
  -38.5672   18.1055  -39.8013 H   0  0  0  0  0  0  0  0  0  0  0  0
  -39.4154   19.8629  -38.4762 H   0  0  0  0  0  0  0  0  0  0  0  0
  -40.0222   18.8051  -37.4369 H   0  0  0  0  0  0  0  0  0  0  0  0
  -38.1141   15.0838  -39.5493 H   0  0  0  0  0  0  0  0  0  0  0  0
  -39.1231   15.9349  -40.4563 H   0  0  0  0  0  0  0  0  0  0  0  0
  -40.9015   14.8849  -38.9721 H   0  0  0  0  0  0  0  0  0  0  0  0
  -39.7807   13.7822  -38.6984 H   0  0  0  0  0  0  0  0  0  0  0  0
  1  3  1  0  0  0  0
  1  9  1  0  0  0  0
  3  5  1  0  0  0  0
  3 14  1  0  0  0  0
  3 15  1  0  0  0  0
  5  7  1  0  0  0  0
  5 16  1  0  0  0  0
  5 17  1  0  0  0  0
  7  8  1  0  0  0  0
  7 10  1  0  0  0  0
  7 13  1  0  0  0  0
  8  9  1  0  0  0  0
  8 18  1  0  0  0  0
  8 19  1  0  0  0  0
  9 20  1  0  0  0  0
  9 21  1  0  0  0  0
 10 11  1  0  0  0  0
 10 22  1  0  0  0  0
 10 23  1  0  0  0  0
 11 12  1  0  0  0  0
 11 24  1  0  0  0  0
 11 25  1  0  0  0  0
  2 12  1  0  0  0  0
  4 12  2  0  0  0  0
  6 12  2  0  0  0  0
M  END
$$$$
