7SOW
  PyMOL2.5          3D                             0

 16 12  0  0  0  0  0  0  0  0999 V2000
   18.0281  -19.1710   32.0172 C   0  0  0  0  0  0  0  0  0  0  0  0
   16.7498  -18.8769   32.6356 O   0  0  0  0  0  0  0  0  0  0  0  0
   18.6630  -17.8096   31.7670 C   0  0  0  0  0  0  0  0  0  0  0  0
   19.0591  -17.1926   33.0059 O   0  0  0  0  0  0  0  0  0  0  0  0
   24.8450  -12.8731   30.7755 C   0  0  0  0  0  0  0  0  0  0  0  0
   24.7388  -14.1565   31.3562 O   0  0  0  0  0  0  0  0  0  0  0  0
   24.4043  -11.9181   31.8625 C   0  0  0  0  0  0  0  0  0  0  0  0
   23.0682  -12.2287   32.3255 O   0  0  0  0  0  0  0  0  0  0  0  0
   -3.9493   -5.1425   24.6547 C   0  0  0  0  0  0  0  0  0  0  0  0
   -4.3007   -4.7830   25.9674 O   0  0  0  0  0  0  0  0  0  0  0  0
   -3.4271   -6.5588   24.3655 C   0  0  0  0  0  0  0  0  0  0  0  0
   -2.6486   -6.5976   23.1736 O   0  0  0  0  0  0  0  0  0  0  0  0
    0.6286   -5.9930   34.2363 C   0  0  0  0  0  0  0  0  0  0  0  0
   -0.1504   -4.8264   34.5051 O   0  0  0  0  0  0  0  0  0  0  0  0
    1.8199   -6.0650   35.1861 C   0  0  0  0  0  0  0  0  0  0  0  0
    2.4352   -7.3504   35.0183 O   0  0  0  0  0  0  0  0  0  0  0  0
  1  2  1  0  0  0  0
  1  3  1  0  0  0  0
  3  4  1  0  0  0  0
  5  6  1  0  0  0  0
  5  7  1  0  0  0  0
  7  8  1  0  0  0  0
  9 10  1  0  0  0  0
  9 11  1  0  0  0  0
 11 12  1  0  0  0  0
 13 14  1  0  0  0  0
 13 15  1  0  0  0  0
 15 16  1  0  0  0  0
M  END
$$$$
