7Z6A
  PyMOL2.5          3D                             0

246264  0  0  0  0  0  0  0  0999 V2000
  -10.1765   18.1983    2.5305 P   0  0  0  0  0  0  0  0  0  0  0  0
  -11.3672   18.3412   -0.0771 P   0  0  0  0  0  0  0  0  0  0  0  0
  -11.8795   17.3765    4.3380 C   0  0  0  0  0  0  0  0  0  0  0  0
  -10.6202   17.2045    3.6542 O   0  0  0  0  0  0  0  0  0  0  0  0
  -11.7848   16.6046    5.6245 C   0  0  0  0  0  0  0  0  0  0  0  0
  -12.9277   16.9086    6.4513 O   0  0  0  0  0  0  0  0  0  0  0  0
  -11.7457   15.0788    5.4732 C   0  0  0  0  0  0  0  0  0  0  0  0
  -10.6237   14.5921    6.1990 O   0  0  0  0  0  0  0  0  0  0  0  0
  -13.0655   14.6294    6.1147 C   0  0  0  0  0  0  0  0  0  0  0  0
  -12.9492   13.3928    6.8071 O   0  0  0  0  0  0  0  0  0  0  0  0
  -13.2785   15.7406    7.1338 C   0  0  0  0  0  0  0  0  0  0  0  0
  -14.6723   15.8620    7.6002 N   0  0  0  0  0  0  0  0  0  0  0  0
  -10.0071   19.5274    3.1614 O   0  5  0  0  0  0  0  0  0  0  0  0
  -10.5328   19.4771   -0.5342 O   0  5  0  0  0  0  0  0  0  0  0  0
  -14.9141   15.7641    8.9606 C   0  0  0  0  0  0  0  0  0  0  0  0
  -14.0265   15.5956    9.7853 O   0  0  0  0  0  0  0  0  0  0  0  0
   -8.9583   17.6575    1.7762 O   0  0  0  0  0  0  0  0  0  0  0  0
  -16.2401   15.8615    9.3234 N   0  0  0  0  0  0  0  0  0  0  0  0
  -11.4091   18.2152    1.5022 O   0  0  0  0  0  0  0  0  0  0  0  0
  -12.8494   18.4555   -0.4628 O   0  0  0  0  0  0  0  0  0  0  0  0
  -17.3175   16.0435    8.4737 C   0  0  0  0  0  0  0  0  0  0  0  0
  -18.4637   16.1073    8.9421 O   0  0  0  0  0  0  0  0  0  0  0  0
  -16.9816   16.1285    7.0821 C   0  0  0  0  0  0  0  0  0  0  0  0
  -15.6947   16.0462    6.6989 C   0  0  0  0  0  0  0  0  0  0  0  0
  -11.4411   15.7301   -0.5175 C   0  0  0  0  0  0  0  0  0  0  0  0
  -10.8011   16.9675   -0.5618 O   0  0  0  0  0  0  0  0  0  0  0  0
  -10.3636   14.6585   -0.3749 C   0  0  0  0  0  0  0  0  0  0  0  0
   -9.6345   14.8179    0.8649 N   0  0  0  0  0  0  0  0  0  0  0  0
   -9.4355   14.7012   -1.5872 C   0  0  0  0  0  0  0  0  0  0  0  0
   -8.6196   13.5286   -1.5468 O   0  0  0  0  0  0  0  0  0  0  0  0
  -10.2429   14.6827   -2.8800 C   0  0  0  0  0  0  0  0  0  0  0  0
   -9.3855   14.8522   -4.0065 O   0  0  0  0  0  0  0  0  0  0  0  0
  -11.3001   15.7821   -2.8759 C   0  0  0  0  0  0  0  0  0  0  0  0
  -12.1552   15.5869   -1.7317 O   0  0  0  0  0  0  0  0  0  0  0  0
  -12.1875   15.7550   -4.1004 C   0  0  0  0  0  0  0  0  0  0  0  0
  -12.9780   14.5717   -4.1004 O   0  0  0  0  0  0  0  0  0  0  0  0
   -9.6124   13.8613    1.7925 C   0  0  0  0  0  0  0  0  0  0  0  0
  -10.1827   12.7904    1.6235 O   0  0  0  0  0  0  0  0  0  0  0  0
   -8.8665   14.1721    3.0533 C   0  0  0  0  0  0  0  0  0  0  0  0
   -7.2304   13.7289   -1.2699 C   0  0  0  0  0  0  0  0  0  0  0  0
   -6.8119   12.7992   -0.1376 C   0  0  0  0  0  0  0  0  0  0  0  0
   -7.5113   11.7794    0.0476 O   0  0  0  0  0  0  0  0  0  0  0  0
   -6.4566   13.4066   -2.5286 C   0  0  0  0  0  0  0  0  0  0  0  0
   -6.0449   12.0668    4.4369 N   0  0  0  0  0  0  0  0  0  0  0  0
   -5.9266   12.3944    5.8610 C   0  0  0  0  0  0  0  0  0  0  0  0
   -7.1294   12.2409    6.7360 C   0  0  0  0  0  0  0  0  0  0  0  0
   -7.3506   13.1273    7.7429 O   0  0  0  0  0  0  0  0  0  0  0  0
   -4.8120   11.4886    6.5290 C   0  0  0  0  0  0  0  0  0  0  0  0
   -3.3700   11.9843    6.1790 C   0  0  0  0  0  0  0  0  0  0  0  0
   -2.9799   13.2697    6.4725 C   0  0  0  0  0  0  0  0  0  0  0  0
   -3.2830   13.9661    7.5749 O   0  0  0  0  0  0  0  0  0  0  0  0
   -7.9750   11.3404    6.5284 O   0  0  0  0  0  0  0  0  0  0  0  0
   -3.9520   16.3139    5.0927 N   0  0  0  0  0  0  0  0  0  0  0  0
   -4.9006   17.4300    4.9639 C   0  0  0  0  0  0  0  0  0  0  0  0
   -4.5352   18.3891    3.8190 C   0  0  0  0  0  0  0  0  0  0  0  0
   -4.4326   17.9773    2.6642 O   0  0  0  0  0  0  0  0  0  0  0  0
   -6.3294   16.9123    4.7885 C   0  0  0  0  0  0  0  0  0  0  0  0
   -4.3565   19.6680    4.1463 N   0  0  0  0  0  0  0  0  0  0  0  0
   -3.9583   20.6902    3.1684 C   0  0  0  0  0  0  0  0  0  0  0  0
   -4.9389   20.8368    1.9996 C   0  0  0  0  0  0  0  0  0  0  0  0
   -4.5321   20.9476    0.8218 O   0  0  0  0  0  0  0  0  0  0  0  0
   -3.7590   22.0537    3.8766 C   0  0  0  0  0  0  0  0  0  0  0  0
   -6.1626   20.8419    2.2030 O   0  0  0  0  0  0  0  0  0  0  0  0
   20.1084   12.4808   15.2427 P   0  0  0  0  0  0  0  0  0  0  0  0
   18.1797   11.7333   13.5268 C   0  0  0  0  0  0  0  0  0  0  0  0
   18.7052   11.7548   14.8603 O   0  0  0  0  0  0  0  0  0  0  0  0
   17.6049   10.3513   13.2272 C   0  0  0  0  0  0  0  0  0  0  0  0
   17.3084   10.2096   11.8308 O   0  0  0  0  0  0  0  0  0  0  0  0
   18.6279    9.2717   13.5514 C   0  0  0  0  0  0  0  0  0  0  0  0
   18.3989    8.6856   14.8398 O   0  0  0  0  0  0  0  0  0  0  0  0
   18.5202    8.2563   12.4339 C   0  0  0  0  0  0  0  0  0  0  0  0
   17.9072    9.0277   11.2821 C   0  0  0  0  0  0  0  0  0  0  0  0
   21.1712    7.5930    7.3986 N   0  0  0  0  0  0  0  0  0  0  0  0
   20.2536    6.8556    8.0619 C   0  0  0  0  0  0  0  0  0  0  0  0
   20.1058    5.5543    7.7164 N   0  0  0  0  0  0  0  0  0  0  0  0
   19.4661    7.3585    9.0516 N   0  0  0  0  0  0  0  0  0  0  0  0
   19.5796    8.6572    9.4308 C   0  0  0  0  0  0  0  0  0  0  0  0
   20.5659    9.5138    8.7466 C   0  0  0  0  0  0  0  0  0  0  0  0
   21.3843    8.8890    7.6729 C   0  0  0  0  0  0  0  0  0  0  0  0
   22.2439    9.5529    7.0492 O   0  0  0  0  0  0  0  0  0  0  0  0
   20.4778   10.7389    9.3069 N   0  0  0  0  0  0  0  0  0  0  0  0
   19.5191   10.6701   10.2644 C   0  0  0  0  0  0  0  0  0  0  0  0
   18.9812    9.4360   10.3381 N   0  0  0  0  0  0  0  0  0  0  0  0
   19.7533   13.8444   15.8025 O   0  0  0  0  0  0  0  0  0  0  0  0
   20.8649   12.5177   13.9269 O   0  5  0  0  0  0  0  0  0  0  0  0
   20.7116   11.5582   16.2855 O   0  0  0  0  0  0  0  0  0  0  0  0
   17.6919    7.2398   12.8178 F   0  0  0  0  0  0  0  0  0  0  0  0
   19.6278    8.0533   15.6690 P   0  0  0  0  0  0  0  0  0  0  0  0
   20.9436    5.9738   14.7712 C   0  0  0  0  0  0  0  0  0  0  0  0
   19.6947    6.5434   15.1268 O   0  0  0  0  0  0  0  0  0  0  0  0
   20.6637    4.9281   13.7151 C   0  0  0  0  0  0  0  0  0  0  0  0
   20.4444    5.5969   12.4716 O   0  0  0  0  0  0  0  0  0  0  0  0
   21.8657    4.0201   13.5715 C   0  0  0  0  0  0  0  0  0  0  0  0
   21.4324    2.6612   13.6719 O   0  0  0  0  0  0  0  0  0  0  0  0
   22.4381    4.3195   12.1983 C   0  0  0  0  0  0  0  0  0  0  0  0
   21.4102    5.1990   11.5016 C   0  0  0  0  0  0  0  0  0  0  0  0
   24.8747    6.9468    8.0421 N   0  0  0  0  0  0  0  0  0  0  0  0
   24.3880    5.7014    8.2177 C   0  0  0  0  0  0  0  0  0  0  0  0
   24.8280    4.7043    7.4073 N   0  0  0  0  0  0  0  0  0  0  0  0
   23.4743    5.4044    9.1774 N   0  0  0  0  0  0  0  0  0  0  0  0
   23.0088    6.3663   10.0087 C   0  0  0  0  0  0  0  0  0  0  0  0
   23.4991    7.7441    9.8650 C   0  0  0  0  0  0  0  0  0  0  0  0
   24.4929    7.9877    8.7929 C   0  0  0  0  0  0  0  0  0  0  0  0
   24.9637    9.1306    8.5988 O   0  0  0  0  0  0  0  0  0  0  0  0
   22.8723    8.4824   10.8088 N   0  0  0  0  0  0  0  0  0  0  0  0
   22.0530    7.6448   11.4999 C   0  0  0  0  0  0  0  0  0  0  0  0
   22.1304    6.3898   11.0087 N   0  0  0  0  0  0  0  0  0  0  0  0
   19.2417    8.0030   17.1339 O   0  5  0  0  0  0  0  0  0  0  0  0
   20.9064    8.7465   15.2507 O   0  0  0  0  0  0  0  0  0  0  0  0
   22.6528    3.1721   11.4782 F   0  0  0  0  0  0  0  0  0  0  0  0
   31.8823    6.8775    0.4153 P   0  0  0  0  0  0  0  0  0  0  0  0
   32.8665    7.9776    0.7517 O   0  0  0  0  0  0  0  0  0  0  0  0
   31.8652    6.2112   -0.9444 O   0  0  0  0  0  0  0  0  0  0  0  0
   29.2967    6.5500    0.3509 C   0  0  0  0  0  0  0  0  0  0  0  0
   30.3880    7.3778    0.7393 O   0  0  0  0  0  0  0  0  0  0  0  0
   29.2661    5.3707    1.3149 C   0  0  0  0  0  0  0  0  0  0  0  0
   29.5720    5.8110    2.6432 O   0  0  0  0  0  0  0  0  0  0  0  0
   27.8940    4.7251    1.3846 C   0  0  0  0  0  0  0  0  0  0  0  0
   27.8342    3.5858    0.5223 O   0  0  0  0  0  0  0  0  0  0  0  0
   27.6911    4.3706    2.8492 C   0  0  0  0  0  0  0  0  0  0  0  0
   28.6880    5.2333    3.6102 C   0  0  0  0  0  0  0  0  0  0  0  0
   27.9850    6.3351    4.2700 N   0  0  0  0  0  0  0  0  0  0  0  0
   27.1444    6.1050    5.3799 C   0  0  0  0  0  0  0  0  0  0  0  0
   26.9769    4.9465    5.8230 O   0  0  0  0  0  0  0  0  0  0  0  0
   26.5138    7.1464    5.9705 N   0  0  0  0  0  0  0  0  0  0  0  0
   26.6840    8.4080    5.5080 C   0  0  0  0  0  0  0  0  0  0  0  0
   26.0498    9.4486    6.1005 N   0  0  0  0  0  0  0  0  0  0  0  0
   27.5117    8.6420    4.4167 C   0  0  0  0  0  0  0  0  0  0  0  0
   28.1633    7.5781    3.8095 C   0  0  0  0  0  0  0  0  0  0  0  0
   27.9320    3.0408    3.0866 F   0  0  0  0  0  0  0  0  0  0  0  0
   26.5761    3.3925   -0.4601 P   0  0  0  0  0  0  0  0  0  0  0  0
   26.9450    2.4040   -1.5499 O   0  5  0  0  0  0  0  0  0  0  0  0
   26.0808    4.7811   -0.8152 O   0  0  0  0  0  0  0  0  0  0  0  0
   24.2938    3.3836    0.8664 C   0  0  0  0  0  0  0  0  0  0  0  0
   25.4704    2.6869    0.4750 O   0  0  0  0  0  0  0  0  0  0  0  0
   23.7196    2.6894    2.0903 C   0  0  0  0  0  0  0  0  0  0  0  0
   24.4199    3.1012    3.2739 O   0  0  0  0  0  0  0  0  0  0  0  0
   22.2856    3.1077    2.3194 C   0  0  0  0  0  0  0  0  0  0  0  0
   21.3863    2.2893    1.5760 O   0  0  0  0  0  0  0  0  0  0  0  0
   22.1427    3.0109    3.8207 C   0  0  0  0  0  0  0  0  0  0  0  0
   23.5040    3.4707    4.3154 C   0  0  0  0  0  0  0  0  0  0  0  0
   23.4711    4.9365    4.4172 N   0  0  0  0  0  0  0  0  0  0  0  0
   22.6217    5.6010    5.3404 C   0  0  0  0  0  0  0  0  0  0  0  0
   21.8684    4.9549    6.1120 O   0  0  0  0  0  0  0  0  0  0  0  0
   22.6179    6.9570    5.3972 N   0  0  0  0  0  0  0  0  0  0  0  0
   23.4131    7.6900    4.5868 C   0  0  0  0  0  0  0  0  0  0  0  0
   23.4040    9.0444    4.6544 N   0  0  0  0  0  0  0  0  0  0  0  0
   24.2468    7.0542    3.6805 C   0  0  0  0  0  0  0  0  0  0  0  0
   24.2645    5.6667    3.6183 C   0  0  0  0  0  0  0  0  0  0  0  0
   21.8766    1.7246    4.2025 F   0  0  0  0  0  0  0  0  0  0  0  0
   20.7207    2.8673    0.2309 P   0  0  0  0  0  0  0  0  0  0  0  0
   18.5742    3.7922    1.2252 C   0  0  0  0  0  0  0  0  0  0  0  0
   19.1522    2.7182    0.5098 O   0  0  0  0  0  0  0  0  0  0  0  0
   18.1590    3.3432    2.6118 C   0  0  0  0  0  0  0  0  0  0  0  0
   19.1770    3.6226    3.5748 O   0  0  0  0  0  0  0  0  0  0  0  0
   16.9808    4.1971    2.9980 C   0  0  0  0  0  0  0  0  0  0  0  0
   15.8074    3.4258    2.7906 O   0  0  0  0  0  0  0  0  0  0  0  0
   17.2201    4.6383    4.4254 C   0  0  0  0  0  0  0  0  0  0  0  0
   18.7347    4.5815    4.5392 C   0  0  0  0  0  0  0  0  0  0  0  0
   18.9976    9.7559    5.4695 N   0  0  0  0  0  0  0  0  0  0  0  0
   18.3021    8.7967    6.1161 C   0  0  0  0  0  0  0  0  0  0  0  0
   18.3253    7.4980    5.7690 N   0  0  0  0  0  0  0  0  0  0  0  0
   19.0768    7.0769    4.7200 C   0  0  0  0  0  0  0  0  0  0  0  0
   19.8684    8.0695    3.9657 C   0  0  0  0  0  0  0  0  0  0  0  0
   19.7899    9.4787    4.4069 C   0  0  0  0  0  0  0  0  0  0  0  0
   20.4881   10.4484    3.7606 N   0  0  0  0  0  0  0  0  0  0  0  0
   20.5131    7.4020    2.9916 N   0  0  0  0  0  0  0  0  0  0  0  0
   20.1641    6.0949    3.1092 C   0  0  0  0  0  0  0  0  0  0  0  0
   19.3167    5.8932    4.1425 N   0  0  0  0  0  0  0  0  0  0  0  0
   21.1265    1.9831   -0.9278 O   0  5  0  0  0  0  0  0  0  0  0  0
   21.0049    4.3521    0.1739 O   0  0  0  0  0  0  0  0  0  0  0  0
   16.6357    3.7590    5.2949 F   0  0  0  0  0  0  0  0  0  0  0  0
   14.8277    3.8505    1.5265 P   0  0  0  0  0  0  0  0  0  0  0  0
   14.0958    2.6374    0.9813 O   0  5  0  0  0  0  0  0  0  0  0  0
   15.5849    4.7641    0.5904 O   0  0  0  0  0  0  0  0  0  0  0  0
   14.0452    6.1380    2.3178 C   0  0  0  0  0  0  0  0  0  0  0  0
   13.7804    4.7559    2.3236 O   0  0  0  0  0  0  0  0  0  0  0  0
   13.6816    6.7574    3.6506 C   0  0  0  0  0  0  0  0  0  0  0  0
   14.8783    7.1544    4.3314 O   0  0  0  0  0  0  0  0  0  0  0  0
   12.9135    8.0172    3.3366 C   0  0  0  0  0  0  0  0  0  0  0  0
   11.5054    7.7699    3.4460 O   0  0  0  0  0  0  0  0  0  0  0  0
   13.5091    9.0783    4.2482 C   0  0  0  0  0  0  0  0  0  0  0  0
   14.9375    8.5788    4.4950 C   0  0  0  0  0  0  0  0  0  0  0  0
   15.8983    9.1196    3.5018 N   0  0  0  0  0  0  0  0  0  0  0  0
   16.2053   10.4999    3.4240 C   0  0  0  0  0  0  0  0  0  0  0  0
   15.6652   11.3197    4.2043 O   0  0  0  0  0  0  0  0  0  0  0  0
   17.0915   10.9494    2.5056 N   0  0  0  0  0  0  0  0  0  0  0  0
   17.7028   10.1004    1.6503 C   0  0  0  0  0  0  0  0  0  0  0  0
   18.5858   10.5673    0.7338 N   0  0  0  0  0  0  0  0  0  0  0  0
   17.4227    8.7450    1.7077 C   0  0  0  0  0  0  0  0  0  0  0  0
   16.5237    8.2828    2.6567 C   0  0  0  0  0  0  0  0  0  0  0  0
   12.7842    9.1999    5.4113 F   0  0  0  0  0  0  0  0  0  0  0  0
   10.6059    7.7450    2.1095 P   0  0  0  0  0  0  0  0  0  0  0  0
   11.0844    6.6455    1.1841 O   0  5  0  0  0  0  0  0  0  0  0  0
    9.1587    7.7606    2.5509 O   0  0  0  0  0  0  0  0  0  0  0  0
   10.3932   10.3284    2.0220 C   0  0  0  0  0  0  0  0  0  0  0  0
   10.9454    9.1620    1.4184 O   0  0  0  0  0  0  0  0  0  0  0  0
   11.1682   11.5827    1.6445 C   0  0  0  0  0  0  0  0  0  0  0  0
   12.5695   11.4204    1.8865 O   0  0  0  0  0  0  0  0  0  0  0  0
   11.0407   11.9313    0.1721 C   0  0  0  0  0  0  0  0  0  0  0  0
    9.9150   12.7710   -0.0722 O   0  0  0  0  0  0  0  0  0  0  0  0
   12.3144   12.6897   -0.0996 C   0  0  0  0  0  0  0  0  0  0  0  0
   13.3256   12.0515    0.8426 C   0  0  0  0  0  0  0  0  0  0  0  0
   14.1298   11.0694    0.0951 N   0  0  0  0  0  0  0  0  0  0  0  0
   15.2295   11.5256   -0.6728 C   0  0  0  0  0  0  0  0  0  0  0  0
   15.4711   12.7538   -0.6989 O   0  0  0  0  0  0  0  0  0  0  0  0
   16.0040   10.6548   -1.3785 N   0  0  0  0  0  0  0  0  0  0  0  0
   15.7271    9.3301   -1.3388 C   0  0  0  0  0  0  0  0  0  0  0  0
   16.4996    8.4547   -2.0414 N   0  0  0  0  0  0  0  0  0  0  0  0
   14.6458    8.8684   -0.5828 C   0  0  0  0  0  0  0  0  0  0  0  0
   13.8535    9.7592    0.1385 C   0  0  0  0  0  0  0  0  0  0  0  0
   12.0956   13.9933    0.2626 F   0  0  0  0  0  0  0  0  0  0  0  0
    8.7961   12.3228   -1.1414 P   0  0  0  0  0  0  0  0  0  0  0  0
    6.4849   13.5202   -1.5138 C   0  0  0  0  0  0  0  0  0  0  0  0
    7.4595   13.0005   -0.5938 O   0  0  0  0  0  0  0  0  0  0  0  0
    5.2366   13.7739   -0.7118 C   0  0  0  0  0  0  0  0  0  0  0  0
    4.8620   12.5596   -0.0212 O   0  0  0  0  0  0  0  0  0  0  0  0
    5.3887   14.8403    0.3759 C   0  0  0  0  0  0  0  0  0  0  0  0
    4.4121   15.8608    0.1981 O   0  0  0  0  0  0  0  0  0  0  0  0
    5.2151   14.0217    1.6637 C   0  0  0  0  0  0  0  0  0  0  0  0
    4.2693   12.8884    1.2223 C   0  0  0  0  0  0  0  0  0  0  0  0
    2.0279    9.9757    4.8340 N   0  0  0  0  0  0  0  0  0  0  0  0
    4.7366   14.7748    2.8393 N   0  0  0  0  0  0  0  0  0  0  0  0
    1.5593   10.9744    4.0772 C   0  0  0  0  0  0  0  0  0  0  0  0
    5.5732   15.0596    3.8568 N   0  0  0  0  0  0  0  0  0  0  0  0
    2.1888   11.6666    3.1223 N   0  0  0  0  0  0  0  0  0  0  0  0
    4.8716   15.7002    4.7624 N   0  0  0  0  0  0  0  0  0  0  0  0
    3.4506   11.2429    2.9708 C   0  0  0  0  0  0  0  0  0  0  0  0
    3.5902   15.8248    4.3225 C   0  0  0  0  0  0  0  0  0  0  0  0
    4.0700   10.2189    3.6688 C   0  0  0  0  0  0  0  0  0  0  0  0
    3.4972   15.2369    3.0922 C   0  0  0  0  0  0  0  0  0  0  0  0
    3.3028    9.5614    4.6505 C   0  0  0  0  0  0  0  0  0  0  0  0
    2.5435   16.4991    5.1491 C   0  0  0  0  0  0  0  0  0  0  0  0
    3.7671    8.5715    5.4209 N   0  0  0  0  0  0  0  0  0  0  0  0
    2.1451   15.5868    6.2922 C   0  0  0  0  0  0  0  0  0  0  0  0
    5.3860   10.0682    3.2530 N   0  0  0  0  0  0  0  0  0  0  0  0
    5.5284   10.9906    2.3331 C   0  0  0  0  0  0  0  0  0  0  0  0
    4.4028   11.7439    2.1162 N   0  0  0  0  0  0  0  0  0  0  0  0
    8.6308   10.7810   -1.1145 O   0  0  0  0  0  0  0  0  0  0  0  0
    9.0809   12.9032   -2.5036 O   0  5  0  0  0  0  0  0  0  0  0  0
   -5.6594   41.1828   16.9553 C   0  0  0  0  0  0  0  0  0  0  0  0
   -6.0556   40.6066   15.7567 O   0  0  0  0  0  0  0  0  0  0  0  0
   -5.3606   40.0356   17.9919 C   0  0  0  0  0  0  0  0  0  0  0  0
   -4.5878   40.5100   19.0836 O   0  0  0  0  0  0  0  0  0  0  0  0
   -6.7585   39.5753   18.4722 C   0  0  0  0  0  0  0  0  0  0  0  0
   -6.5570   38.4163   19.2242 O   0  0  0  0  0  0  0  0  0  0  0  0
  1 13  1  0  0  0  0
  1 17  2  0  0  0  0
  1 19  1  0  0  0  0
  2 14  1  0  0  0  0
  2 20  2  0  0  0  0
  2 26  1  0  0  0  0
  3  4  1  0  0  0  0
  1  4  1  0  0  0  0
  3  5  1  0  0  0  0
  5  6  1  0  0  0  0
  5  7  1  0  0  0  0
  7  8  1  0  0  0  0
  7  9  1  0  0  0  0
  9 10  1  0  0  0  0
  6 11  1  0  0  0  0
  9 11  1  0  0  0  0
 11 12  1  0  0  0  0
 12 15  4  0  0  0  0
 12 24  4  0  0  0  0
 15 16  2  0  0  0  0
 15 18  4  0  0  0  0
 18 21  4  0  0  0  0
  2 19  1  0  0  0  0
 21 22  2  0  0  0  0
 21 23  4  0  0  0  0
 23 24  4  0  0  0  0
 25 26  1  0  0  0  0
 25 27  1  0  0  0  0
 25 34  1  0  0  0  0
 27 28  1  0  0  0  0
 27 29  1  0  0  0  0
 29 30  1  0  0  0  0
 29 31  1  0  0  0  0
 31 32  1  0  0  0  0
 31 33  1  0  0  0  0
 33 34  1  0  0  0  0
 33 35  1  0  0  0  0
 35 36  1  0  0  0  0
 28 37  1  0  0  0  0
 37 38  2  0  0  0  0
 37 39  1  0  0  0  0
 30 40  1  0  0  0  0
 40 41  1  0  0  0  0
 40 43  1  0  0  0  0
 41 42  2  0  0  0  0
 44 45  1  0  0  0  0
 45 46  1  0  0  0  0
 45 48  1  0  0  0  0
 46 47  4  0  0  0  0
 46 52  4  0  0  0  0
 48 49  1  0  0  0  0
 49 50  1  0  0  0  0
 50 51  2  0  0  0  0
 53 54  1  0  0  0  0
 54 55  1  0  0  0  0
 54 57  1  0  0  0  0
 55 56  2  0  0  0  0
 55 58  1  0  0  0  0
 58 59  1  0  0  0  0
 59 60  1  0  0  0  0
 59 62  1  0  0  0  0
 60 61  4  0  0  0  0
 60 63  4  0  0  0  0
 64 66  1  0  0  0  0
 64 84  1  0  0  0  0
 64 85  1  0  0  0  0
 64 86  2  0  0  0  0
 65 66  1  0  0  0  0
 65 67  1  0  0  0  0
 67 68  1  0  0  0  0
 67 69  1  0  0  0  0
 69 70  1  0  0  0  0
 70 88  1  0  0  0  0
 69 71  1  0  0  0  0
 68 72  1  0  0  0  0
 71 72  1  0  0  0  0
 73 74  4  0  0  0  0
 73 79  4  0  0  0  0
 74 75  1  0  0  0  0
 74 76  4  0  0  0  0
 76 77  4  0  0  0  0
 77 78  4  0  0  0  0
 77 83  4  0  0  0  0
 78 79  4  0  0  0  0
 78 81  4  0  0  0  0
 79 80  2  0  0  0  0
 81 82  4  0  0  0  0
 82 83  4  0  0  0  0
 72 83  1  0  0  0  0
 71 87  1  0  0  0  0
 88 90  1  0  0  0  0
 88108  1  0  0  0  0
 88109  2  0  0  0  0
 89 90  1  0  0  0  0
 89 91  1  0  0  0  0
 91 92  1  0  0  0  0
 91 93  1  0  0  0  0
 93 94  1  0  0  0  0
 93 95  1  0  0  0  0
 92 96  1  0  0  0  0
 95 96  1  0  0  0  0
 97 98  4  0  0  0  0
 97103  4  0  0  0  0
 98 99  1  0  0  0  0
 98100  4  0  0  0  0
100101  4  0  0  0  0
101102  4  0  0  0  0
101107  4  0  0  0  0
102103  4  0  0  0  0
102105  4  0  0  0  0
103104  2  0  0  0  0
105106  4  0  0  0  0
106107  4  0  0  0  0
 96107  1  0  0  0  0
 95110  1  0  0  0  0
111112  2  0  0  0  0
111113  2  0  0  0  0
111115  1  0  0  0  0
114115  1  0  0  0  0
114116  1  0  0  0  0
116117  1  0  0  0  0
116118  1  0  0  0  0
118119  1  0  0  0  0
119131  1  0  0  0  0
118120  1  0  0  0  0
120130  1  0  0  0  0
117121  1  0  0  0  0
120121  1  0  0  0  0
121122  1  0  0  0  0
122123  4  0  0  0  0
122129  4  0  0  0  0
123124  2  0  0  0  0
123125  4  0  0  0  0
125126  4  0  0  0  0
126127  1  0  0  0  0
126128  4  0  0  0  0
128129  4  0  0  0  0
131132  1  0  0  0  0
131133  2  0  0  0  0
131135  1  0  0  0  0
134135  1  0  0  0  0
134136  1  0  0  0  0
136137  1  0  0  0  0
136138  1  0  0  0  0
138139  1  0  0  0  0
139151  1  0  0  0  0
138140  1  0  0  0  0
140150  1  0  0  0  0
137141  1  0  0  0  0
140141  1  0  0  0  0
141142  1  0  0  0  0
142143  4  0  0  0  0
142149  4  0  0  0  0
143144  2  0  0  0  0
143145  4  0  0  0  0
145146  4  0  0  0  0
146147  1  0  0  0  0
146148  4  0  0  0  0
148149  4  0  0  0  0
151153  1  0  0  0  0
151170  1  0  0  0  0
151171  2  0  0  0  0
152153  1  0  0  0  0
152154  1  0  0  0  0
154155  1  0  0  0  0
154156  1  0  0  0  0
156157  1  0  0  0  0
157173  1  0  0  0  0
156158  1  0  0  0  0
155159  1  0  0  0  0
158159  1  0  0  0  0
160161  4  0  0  0  0
160165  4  0  0  0  0
161162  4  0  0  0  0
162163  4  0  0  0  0
163164  4  0  0  0  0
163169  4  0  0  0  0
164165  4  0  0  0  0
164167  4  0  0  0  0
165166  1  0  0  0  0
167168  4  0  0  0  0
168169  4  0  0  0  0
159169  1  0  0  0  0
158172  1  0  0  0  0
173174  1  0  0  0  0
173175  2  0  0  0  0
173177  1  0  0  0  0
176177  1  0  0  0  0
176178  1  0  0  0  0
178179  1  0  0  0  0
178180  1  0  0  0  0
180181  1  0  0  0  0
181193  1  0  0  0  0
180182  1  0  0  0  0
182192  1  0  0  0  0
179183  1  0  0  0  0
182183  1  0  0  0  0
183184  1  0  0  0  0
184185  4  0  0  0  0
184191  4  0  0  0  0
185186  2  0  0  0  0
185187  4  0  0  0  0
187188  4  0  0  0  0
188189  1  0  0  0  0
188190  4  0  0  0  0
190191  4  0  0  0  0
193194  1  0  0  0  0
193195  2  0  0  0  0
193197  1  0  0  0  0
196197  1  0  0  0  0
196198  1  0  0  0  0
198199  1  0  0  0  0
198200  1  0  0  0  0
200201  1  0  0  0  0
201213  1  0  0  0  0
200202  1  0  0  0  0
202212  1  0  0  0  0
199203  1  0  0  0  0
202203  1  0  0  0  0
203204  1  0  0  0  0
204205  4  0  0  0  0
204211  4  0  0  0  0
205206  2  0  0  0  0
205207  4  0  0  0  0
207208  4  0  0  0  0
208209  1  0  0  0  0
208210  4  0  0  0  0
210211  4  0  0  0  0
213215  1  0  0  0  0
213240  1  0  0  0  0
214216  1  0  0  0  0
214215  1  0  0  0  0
216217  1  0  0  0  0
216218  1  0  0  0  0
218219  1  0  0  0  0
218220  1  0  0  0  0
220221  1  0  0  0  0
220223  1  0  0  0  0
217221  1  0  0  0  0
221238  1  0  0  0  0
222232  4  0  0  0  0
223225  4  0  0  0  0
223231  4  0  0  0  0
222224  4  0  0  0  0
224226  4  0  0  0  0
225227  4  0  0  0  0
226228  4  0  0  0  0
228230  4  0  0  0  0
227229  4  0  0  0  0
229233  1  0  0  0  0
230232  4  0  0  0  0
230236  4  0  0  0  0
229231  4  0  0  0  0
232234  1  0  0  0  0
233235  1  0  0  0  0
236237  4  0  0  0  0
228238  4  0  0  0  0
237238  4  0  0  0  0
213239  2  0  0  0  0
241242  1  0  0  0  0
241243  1  0  0  0  0
243244  1  0  0  0  0
243245  1  0  0  0  0
245246  1  0  0  0  0
M  END
$$$$
