8EKO
  PyMOL2.5          3D                             0

 48 53  0  0  0  0  0  0  0  0999 V2000
  -26.2109   41.1184   -6.0470 C   0  0  0  0  0  0  0  0  0  0  0  0
  -19.5927   37.2020    0.2824 C   0  0  0  0  0  0  0  0  0  0  0  0
  -24.9854   31.5087   -1.2369 C   0  0  0  0  0  0  0  0  0  0  0  0
  -29.1199   36.5023   -5.7912 C   0  0  0  0  0  0  0  0  0  0  0  0
  -29.1112   36.4732   -5.8126 C   0  0  0  0  0  0  0  0  0  0  0  0
  -24.5087   38.6288   -3.7649 N   0  0  0  0  0  0  0  0  0  0  0  0
  -27.0122   42.1436   -5.2429 C   0  0  0  0  0  0  0  0  0  0  0  0
  -18.3102   37.5474    0.1109 C   0  0  0  0  0  0  0  0  0  0  0  0
  -24.4778   30.4093   -0.6941 C   0  0  0  0  0  0  0  0  0  0  0  0
  -29.0977   35.6978   -7.0805 C   0  0  0  0  0  0  0  0  0  0  0  0
  -28.5661   36.4030   -7.2401 C   0  0  0  0  0  0  0  0  0  0  0  0
  -22.6249   37.5493   -1.9107 N   0  0  0  0  0  0  0  0  0  0  0  0
  -27.7578   41.5282   -4.0885 C   0  0  0  0  0  0  0  0  0  0  0  0
  -28.0488   36.3357   -7.9322 C   0  0  0  0  0  0  0  0  0  0  0  0
  -29.6418   36.6737   -8.2612 C   0  0  0  0  0  0  0  0  0  0  0  0
  -26.0483   36.2381   -3.5957 N   0  0  0  0  0  0  0  0  0  0  0  0
  -26.6150   38.2190   -4.9376 C   0  0  0  0  0  0  0  0  0  0  0  0
  -22.4749   39.7553   -2.9635 C   0  0  0  0  0  0  0  0  0  0  0  0
  -22.0706   35.5775   -0.5551 C   0  0  0  0  0  0  0  0  0  0  0  0
  -26.1402   33.9907   -2.6091 C   0  0  0  0  0  0  0  0  0  0  0  0
  -23.4181   42.1279   -4.7156 C   0  0  0  0  0  0  0  0  0  0  0  0
  -19.8735   40.0763   -1.3299 C   0  0  0  0  0  0  0  0  0  0  0  0
  -22.1835   32.5599    0.2245 C   0  0  0  0  0  0  0  0  0  0  0  0
  -28.7933   33.7140   -4.2612 C   0  0  0  0  0  0  0  0  0  0  0  0
  -25.5282   38.9953   -4.6194 C   0  0  0  0  0  0  0  0  0  0  0  0
  -22.0090   38.7689   -2.1278 C   0  0  0  0  0  0  0  0  0  0  0  0
  -23.1014   34.7495   -0.9428 C   0  0  0  0  0  0  0  0  0  0  0  0
  -26.6336   34.9945   -3.4077 C   0  0  0  0  0  0  0  0  0  0  0  0
  -27.3463   41.7705   -2.9250 O   0  0  0  0  0  0  0  0  0  0  0  0
  -28.0828   37.5908   -8.0480 O   0  0  0  0  0  0  0  0  0  0  0  0
  -30.8336   36.3468   -8.0222 O   0  0  0  0  0  0  0  0  0  0  0  0
  -25.2791   40.3495   -5.0907 C   0  0  0  0  0  0  0  0  0  0  0  0
  -20.7963   38.8373   -1.3491 C   0  0  0  0  0  0  0  0  0  0  0  0
  -23.2162   33.3391   -0.6174 C   0  0  0  0  0  0  0  0  0  0  0  0
  -27.8457   34.9285   -4.1978 C   0  0  0  0  0  0  0  0  0  0  0  0
  -28.7586   40.7979   -4.3167 O   0  0  0  0  0  0  0  0  0  0  0  0
  -27.1998   35.5872   -8.4777 O   0  0  0  0  0  0  0  0  0  0  0  0
  -29.2882   37.2176   -9.3337 O   0  0  0  0  0  0  0  0  0  0  0  0
  -24.1273   40.7680   -4.5451 C   0  0  0  0  0  0  0  0  0  0  0  0
  -20.6961   37.6833   -0.6702 C   0  0  0  0  0  0  0  0  0  0  0  0
  -24.3507   32.9145   -1.2008 C   0  0  0  0  0  0  0  0  0  0  0  0
  -27.9730   36.0929   -4.8413 C   0  0  0  0  0  0  0  0  0  0  0  0
  -23.6248   39.6977   -3.7123 C   0  0  0  0  0  0  0  0  0  0  0  0
  -21.8184   36.8517   -1.0370 C   0  0  0  0  0  0  0  0  0  0  0  0
  -24.9620   34.0270   -1.9042 C   0  0  0  0  0  0  0  0  0  0  0  0
  -26.8507   36.9383   -4.4747 C   0  0  0  0  0  0  0  0  0  0  0  0
  -24.1772   35.1505   -1.7212 N   0  0  0  0  0  0  0  0  0  0  0  0
  -24.3730   36.9039   -2.7090 Fe  0  0  0  0  0  0  0  0  0  0  0  0
  1  7  1  0  0  0  0
  2  8  1  0  0  0  0
  3  9  1  0  0  0  0
  4 10  1  0  0  0  0
  5 11  1  0  0  0  0
  7 13  1  0  0  0  0
 10 14  1  0  0  0  0
 11 15  1  0  0  0  0
 13 29  4  0  0  0  0
 13 36  4  0  0  0  0
 14 30  4  0  0  0  0
 14 37  4  0  0  0  0
 15 31  4  0  0  0  0
 15 38  4  0  0  0  0
 16 48  1  0  0  0  0
 17 25  1  0  0  0  0
 17 46  1  0  0  0  0
 18 26  1  0  0  0  0
 18 43  1  0  0  0  0
 19 27  1  0  0  0  0
 19 44  1  0  0  0  0
 20 28  4  0  0  0  0
 20 45  4  0  0  0  0
  6 25  4  0  0  0  0
 25 32  4  0  0  0  0
 12 26  4  0  0  0  0
 26 33  4  0  0  0  0
 27 34  4  0  0  0  0
 27 47  4  0  0  0  0
 16 28  4  0  0  0  0
 28 35  4  0  0  0  0
  1 32  1  0  0  0  0
 32 39  4  0  0  0  0
 22 33  1  0  0  0  0
 33 40  4  0  0  0  0
 23 34  1  0  0  0  0
 34 41  4  0  0  0  0
 24 35  1  0  0  0  0
 35 42  4  0  0  0  0
 21 39  1  0  0  0  0
 39 43  4  0  0  0  0
  2 40  1  0  0  0  0
 40 44  4  0  0  0  0
  3 41  1  0  0  0  0
 41 45  4  0  0  0  0
  4 42  1  0  0  0  0
  5 42  1  0  0  0  0
 42 46  4  0  0  0  0
  6 43  4  0  0  0  0
 12 44  4  0  0  0  0
 45 47  4  0  0  0  0
 16 46  4  0  0  0  0
 47 48  1  0  0  0  0
M  END
$$$$
