8ERS
  PyMOL2.5          3D                             0

 37 39  0  0  0  0  0  0  0  0999 V2000
  -58.3711   12.0704   10.3480 N   0  0  0  0  0  0  0  0  0  0  0  0
  -57.9427   13.3027    9.7609 C   0  0  0  0  0  0  0  0  0  0  0  0
  -57.4319   14.2879   10.5816 C   0  0  0  0  0  0  0  0  0  0  0  0
  -57.0421   15.4717   10.0052 C   0  0  0  0  0  0  0  0  0  0  0  0
  -56.5263   16.4444   10.8434 O   0  0  0  0  0  0  0  0  0  0  0  0
  -57.1407   15.6802    8.6459 C   0  0  0  0  0  0  0  0  0  0  0  0
  -56.7340   17.0155    8.0672 C   0  0  0  0  0  0  0  0  0  0  0  0
  -56.9143   17.1209    6.7020 O   0  0  0  0  0  0  0  0  0  0  0  0
  -56.9077   18.3788    6.0766 C   0  0  0  0  0  0  0  0  0  0  0  0
  -57.5904   18.1799    4.7633 C   0  0  0  0  0  0  0  0  0  0  0  0
  -59.0958   18.3911    4.8632 C   0  0  0  0  0  0  0  0  0  0  0  0
  -59.8521   17.6965    4.1486 O   0  5  0  0  0  0  0  0  0  0  0  0
  -59.5658   19.2312    5.6625 O   0  0  0  0  0  0  0  0  0  0  0  0
  -56.9337   19.1336    3.7849 C   0  0  0  0  0  0  0  0  0  0  0  0
  -55.5070   19.2672    4.3484 C   0  0  0  0  0  0  0  0  0  0  0  0
  -55.4989   18.8415    5.6792 C   0  0  0  0  0  0  0  0  0  0  0  0
  -54.3257   18.8837    6.4207 C   0  0  0  0  0  0  0  0  0  0  0  0
  -53.1762   19.3472    5.8189 C   0  0  0  0  0  0  0  0  0  0  0  0
  -53.1925   19.7663    4.5100 C   0  0  0  0  0  0  0  0  0  0  0  0
  -54.3492   19.7338    3.7581 C   0  0  0  0  0  0  0  0  0  0  0  0
  -56.3411   17.9303    8.7096 O   0  0  0  0  0  0  0  0  0  0  0  0
  -57.6596   14.6907    7.8351 C   0  0  0  0  0  0  0  0  0  0  0  0
  -58.0558   13.4904    8.3965 C   0  0  0  0  0  0  0  0  0  0  0  0
  -59.1859   11.9885   10.6271 H   0  0  0  0  0  0  0  0  0  0  0  0
  -57.8008   11.4584   10.4873 H   0  0  0  0  0  0  0  0  0  0  0  0
  -57.3899   14.1847   11.5262 H   0  0  0  0  0  0  0  0  0  0  0  0
  -56.4991   17.1957   10.4702 H   0  0  0  0  0  0  0  0  0  0  0  0
  -57.3537   19.0489    6.6415 H   0  0  0  0  0  0  0  0  0  0  0  0
  -57.4092   17.2777    4.4918 H   0  0  0  0  0  0  0  0  0  0  0  0
  -57.3739   19.9969    3.7966 H   0  0  0  0  0  0  0  0  0  0  0  0
  -56.8890   18.7265    2.9065 H   0  0  0  0  0  0  0  0  0  0  0  0
  -54.3250   18.6138    7.3166 H   0  0  0  0  0  0  0  0  0  0  0  0
  -52.3922   19.3921    6.3179 H   0  0  0  0  0  0  0  0  0  0  0  0
  -52.4163   20.0737    4.1686 H   0  0  0  0  0  0  0  0  0  0  0  0
  -54.3545   20.0244    2.8882 H   0  0  0  0  0  0  0  0  0  0  0  0
  -57.7195   14.8285    6.9171 H   0  0  0  0  0  0  0  0  0  0  0  0
  -58.3992   12.8133    7.8682 H   0  0  0  0  0  0  0  0  0  0  0  0
  1 24  1  0  0  0  0
  1 25  1  0  0  0  0
  1  2  1  0  0  0  0
  2  3  4  0  0  0  0
  2 23  4  0  0  0  0
  3  4  4  0  0  0  0
  3 26  1  0  0  0  0
  4  5  1  0  0  0  0
  4  6  4  0  0  0  0
  5 27  1  0  0  0  0
  6  7  1  0  0  0  0
  6 22  4  0  0  0  0
  7  8  1  0  0  0  0
  7 21  2  0  0  0  0
  8  9  1  0  0  0  0
  9 28  1  0  0  0  0
  9 10  1  0  0  0  0
 10 29  1  0  0  0  0
 10 11  1  0  0  0  0
 11 12  4  0  0  0  0
 11 13  4  0  0  0  0
 10 14  1  0  0  0  0
 14 30  1  0  0  0  0
 14 31  1  0  0  0  0
 14 15  1  0  0  0  0
 15 20  4  0  0  0  0
  9 16  1  0  0  0  0
 15 16  4  0  0  0  0
 16 17  4  0  0  0  0
 17 32  1  0  0  0  0
 17 18  4  0  0  0  0
 18 19  4  0  0  0  0
 18 33  1  0  0  0  0
 19 34  1  0  0  0  0
 19 20  4  0  0  0  0
 20 35  1  0  0  0  0
 22 23  4  0  0  0  0
 22 36  1  0  0  0  0
 23 37  1  0  0  0  0
M  END
$$$$
