5ST1
  PyMOL2.5          3D                             0

 11 11  0  0  0  0  0  0  0  0999 V2000
   48.4989   16.3470   25.6392 N   0  0  0  0  0  0  0  0  0  0  0  0
   52.2693   21.3364   25.9550 C   0  0  0  0  0  0  0  0  0  0  0  0
   51.8940   20.4300   25.0215 O   0  0  0  0  0  0  0  0  0  0  0  0
   50.9780   19.5057   25.3026 C   0  0  0  0  0  0  0  0  0  0  0  0
   48.7316   18.3258   27.6241 O   0  0  0  0  0  0  0  0  0  0  0  0
   50.7461   18.6713   24.2238 C   0  0  0  0  0  0  0  0  0  0  0  0
   48.3644   15.5676   24.8678 O   0  0  0  0  0  0  0  0  0  0  0  0
   49.8984   17.6430   24.3316 C   0  0  0  0  0  0  0  0  0  0  0  0
   49.2627   17.4668   25.5046 C   0  0  0  0  0  0  0  0  0  0  0  0
   49.4531   18.3424   26.5388 C   0  0  0  0  0  0  0  0  0  0  0  0
   50.3302   19.3646   26.4757 C   0  0  0  0  0  0  0  0  0  0  0  0
  2  3  1  0  0  0  0
  3  4  1  0  0  0  0
  4  6  4  0  0  0  0
  4 11  4  0  0  0  0
  5 10  2  0  0  0  0
  1  7  1  0  0  0  0
  6  8  4  0  0  0  0
  1  9  1  0  0  0  0
  8  9  4  0  0  0  0
  9 10  4  0  0  0  0
 10 11  4  0  0  0  0
M  END
$$$$
