5STC
  PyMOL2.5          3D                             0

 16 16  0  0  0  0  0  0  0  0999 V2000
   20.4661  -34.2891   44.4645 N   0  0  0  0  0  0  0  0  0  0  0  0
   19.3316  -32.6204   43.6408 C   0  0  0  0  0  0  0  0  0  0  0  0
   20.0927  -35.4475   47.2318 Cl  0  0  0  0  0  0  0  0  0  0  0  0
   19.4185  -33.9874   43.6422 C   0  0  0  0  0  0  0  0  0  0  0  0
   20.2847  -32.0736   44.4374 N   0  0  0  0  0  0  0  0  0  0  0  0
   20.9614  -33.0935   44.9261 C   0  0  0  0  0  0  0  0  0  0  0  0
   20.9450  -35.6245   44.7682 C   0  0  0  0  0  0  0  0  0  0  0  0
   19.9309  -36.3466   45.6595 C   0  0  0  0  0  0  0  0  0  0  0  0
   25.3014   28.8240   -4.3219 N   0  0  0  0  0  0  0  0  0  0  0  0
   24.0690   28.0587   -5.9864 C   0  0  0  0  0  0  0  0  0  0  0  0
   23.5601   30.3581   -2.3823 Cl  0  0  0  0  0  0  0  0  0  0  0  0
   24.1735   28.0664   -4.6135 C   0  0  0  0  0  0  0  0  0  0  0  0
   25.0957   28.7916   -6.5564 N   0  0  0  0  0  0  0  0  0  0  0  0
   25.8316   29.2487   -5.5370 C   0  0  0  0  0  0  0  0  0  0  0  0
   25.8323   29.0848   -2.9906 C   0  0  0  0  0  0  0  0  0  0  0  0
   25.3961   30.4540   -2.4824 C   0  0  0  0  0  0  0  0  0  0  0  0
  1  4  4  0  0  0  0
  2  4  4  0  0  0  0
  2  5  4  0  0  0  0
  5  6  4  0  0  0  0
  1  6  4  0  0  0  0
  1  7  1  0  0  0  0
  3  8  1  0  0  0  0
  7  8  1  0  0  0  0
  9 12  4  0  0  0  0
 10 12  4  0  0  0  0
 10 13  4  0  0  0  0
 13 14  4  0  0  0  0
  9 14  4  0  0  0  0
  9 15  1  0  0  0  0
 11 16  1  0  0  0  0
 15 16  1  0  0  0  0
M  END
$$$$
