5STM
  PyMOL2.5          3D                             0

 18 18  0  0  0  0  0  0  0  0999 V2000
  -25.3160  -17.9577  -20.7035 N   0  0  0  0  0  0  0  0  0  0  0  0
  -25.0226  -16.2452  -22.9087 C   0  0  0  0  0  0  0  0  0  0  0  0
  -24.2998  -17.4137  -22.8425 C   0  0  0  0  0  0  0  0  0  0  0  0
  -23.7607  -19.4342  -21.5657 N   0  0  0  0  0  0  0  0  0  0  0  0
  -24.4720  -18.2361  -21.7215 C   0  0  0  0  0  0  0  0  0  0  0  0
  -23.4772  -19.7939  -20.2506 N   0  0  0  0  0  0  0  0  0  0  0  0
  -25.9990  -16.8208  -20.7991 C   0  0  0  0  0  0  0  0  0  0  0  0
  -25.8583  -15.9646  -21.8617 C   0  0  0  0  0  0  0  0  0  0  0  0
  -26.7441  -14.3073  -21.8008 Br  0  0  0  0  0  0  0  0  0  0  0  0
   -3.7100   -0.6370  -29.7643 N   0  0  0  0  0  0  0  0  0  0  0  0
   -1.7000    0.4668  -28.1714 C   0  0  0  0  0  0  0  0  0  0  0  0
   -1.4811    0.2699  -29.5054 C   0  0  0  0  0  0  0  0  0  0  0  0
   -2.2112   -0.6408  -31.5900 N   0  0  0  0  0  0  0  0  0  0  0  0
   -2.4827   -0.3025  -30.2821 C   0  0  0  0  0  0  0  0  0  0  0  0
   -2.2121    0.3849  -32.4883 N   0  0  0  0  0  0  0  0  0  0  0  0
   -3.8278   -0.4055  -28.4241 C   0  0  0  0  0  0  0  0  0  0  0  0
   -2.8788    0.0905  -27.6855 C   0  0  0  0  0  0  0  0  0  0  0  0
   -3.2884    0.1027  -25.9067 Br  0  0  0  0  0  0  0  0  0  0  0  0
  2  3  4  0  0  0  0
  3  5  4  0  0  0  0
  4  5  1  0  0  0  0
  4  6  1  0  0  0  0
  1  5  4  0  0  0  0
  1  7  4  0  0  0  0
  2  8  4  0  0  0  0
  7  8  4  0  0  0  0
  8  9  1  0  0  0  0
 11 12  4  0  0  0  0
 12 14  4  0  0  0  0
 13 14  1  0  0  0  0
 13 15  1  0  0  0  0
 10 14  4  0  0  0  0
 10 16  4  0  0  0  0
 11 17  4  0  0  0  0
 16 17  4  0  0  0  0
 17 18  1  0  0  0  0
M  END
$$$$
