5STO
  PyMOL2.5          3D                             0

 16 17  0  0  0  0  0  0  0  0999 V2000
   13.5987  -52.9863   12.1944 N   0  0  0  0  0  0  0  0  0  0  0  0
   12.6713  -57.8218   10.0969 C   0  0  0  0  0  0  0  0  0  0  0  0
   13.6193  -53.2337   10.0090 O   0  0  0  0  0  0  0  0  0  0  0  0
   11.5711  -56.8289    9.7433 C   0  0  0  0  0  0  0  0  0  0  0  0
   14.6593  -51.8144   15.7001 N   0  0  0  0  0  0  0  0  0  0  0  0
   15.9612  -51.7226   15.9153 O   0  0  0  0  0  0  0  0  0  0  0  0
   12.1220  -55.4029    9.7499 C   0  0  0  0  0  0  0  0  0  0  0  0
   12.6886  -55.0853   11.1292 C   0  0  0  0  0  0  0  0  0  0  0  0
   13.7894  -56.0882   11.4718 C   0  0  0  0  0  0  0  0  0  0  0  0
   13.2137  -57.5014   11.4766 C   0  0  0  0  0  0  0  0  0  0  0  0
   13.3302  -53.7203   11.0550 C   0  0  0  0  0  0  0  0  0  0  0  0
   12.6105  -52.9738   13.2893 C   0  0  0  0  0  0  0  0  0  0  0  0
   12.8412  -51.7799   14.2154 C   0  0  0  0  0  0  0  0  0  0  0  0
   14.3097  -51.6806   14.4804 C   0  0  0  0  0  0  0  0  0  0  0  0
   15.1783  -51.4499   13.2968 C   0  0  0  0  0  0  0  0  0  0  0  0
   14.3444  -51.7271   12.0490 C   0  0  0  0  0  0  0  0  0  0  0  0
  1 16  1  0  0  0  0
  2  4  1  0  0  0  0
  4  7  1  0  0  0  0
  5  6  1  0  0  0  0
  5 14  1  0  0  0  0
  7  8  1  0  0  0  0
  8  9  1  0  0  0  0
  2 10  1  0  0  0  0
  9 10  1  0  0  0  0
  1 11  1  0  0  0  0
  3 11  2  0  0  0  0
  8 11  1  0  0  0  0
  1 12  1  0  0  0  0
 12 13  1  0  0  0  0
 13 14  1  0  0  0  0
 14 15  1  0  0  0  0
 15 16  1  0  0  0  0
M  END
$$$$
