5STP
  PyMOL2.5          3D                             0

 29 30  0  0  0  0  0  0  0  0999 V2000
   41.8176   -3.0553    3.9487 N   0  0  0  0  0  0  0  0  0  0  0  0
   40.6988    3.6260    0.5643 C   0  0  0  0  0  0  0  0  0  0  0  0
   41.1001    3.3511    1.8216 C   0  0  0  0  0  0  0  0  0  0  0  0
   40.4084   -3.0171    2.3073 N   0  0  0  0  0  0  0  0  0  0  0  0
   41.2022    2.1331    2.2524 C   0  0  0  0  0  0  0  0  0  0  0  0
   42.1791   -1.1762    0.9944 N   0  0  0  0  0  0  0  0  0  0  0  0
   41.1628    1.0905    1.4286 C   0  0  0  0  0  0  0  0  0  0  0  0
   40.8189    1.3440    0.1230 C   0  0  0  0  0  0  0  0  0  0  0  0
   40.5018    2.6104   -0.2494 C   0  0  0  0  0  0  0  0  0  0  0  0
   41.8201   -0.1357    2.0365 C   0  0  0  0  0  0  0  0  0  0  0  0
   41.0778   -0.7787    3.1998 C   0  0  0  0  0  0  0  0  0  0  0  0
   41.1030   -2.2388    3.1577 C   0  0  0  0  0  0  0  0  0  0  0  0
   41.5824   -4.3706    3.5832 C   0  0  0  0  0  0  0  0  0  0  0  0
   40.7000   -4.3352    2.5509 C   0  0  0  0  0  0  0  0  0  0  0  0
   42.7939    0.1588    2.3955 H   0  0  0  0  0  0  0  0  0  0  0  0
   42.4302   -2.7662    4.7042 H   0  0  0  0  0  0  0  0  0  0  0  0
   39.7612   -2.6873    1.5983 H   0  0  0  0  0  0  0  0  0  0  0  0
   41.3675   -1.6932    0.6803 H   0  0  0  0  0  0  0  0  0  0  0  0
   42.8947   -1.8210    1.3083 H   0  0  0  0  0  0  0  0  0  0  0  0
   42.5227   -0.6630    0.1967 H   0  0  0  0  0  0  0  0  0  0  0  0
   40.5503    4.6289    0.1976 H   0  0  0  0  0  0  0  0  0  0  0  0
   41.5792    4.0884    2.4366 H   0  0  0  0  0  0  0  0  0  0  0  0
   41.2742    2.0087    3.3289 H   0  0  0  0  0  0  0  0  0  0  0  0
   40.9363    0.6514   -0.6921 H   0  0  0  0  0  0  0  0  0  0  0  0
   39.9405    2.7871   -1.1619 H   0  0  0  0  0  0  0  0  0  0  0  0
   40.0526   -0.4443    3.2686 H   0  0  0  0  0  0  0  0  0  0  0  0
   41.5198   -0.4463    4.1258 H   0  0  0  0  0  0  0  0  0  0  0  0
   42.0646   -5.2284    4.0485 H   0  0  0  0  0  0  0  0  0  0  0  0
   40.2887   -5.1601    1.9755 H   0  0  0  0  0  0  0  0  0  0  0  0
  1 16  1  0  0  0  0
  2 21  1  0  0  0  0
  2  3  4  0  0  0  0
  3  5  4  0  0  0  0
  3 22  1  0  0  0  0
  4 12  4  0  0  0  0
  4 14  4  0  0  0  0
  4 17  1  0  0  0  0
  5 23  1  0  0  0  0
  6 10  1  0  0  0  0
  6 18  1  0  0  0  0
  6 19  1  0  0  0  0
  6 20  1  0  0  0  0
  5  7  4  0  0  0  0
  7  8  4  0  0  0  0
  8 24  1  0  0  0  0
  2  9  4  0  0  0  0
  8  9  4  0  0  0  0
  9 25  1  0  0  0  0
  7 10  1  0  0  0  0
 10 15  1  0  0  0  0
 10 11  1  0  0  0  0
 11 12  1  0  0  0  0
 11 26  1  0  0  0  0
 11 27  1  0  0  0  0
  1 12  4  0  0  0  0
  1 13  4  0  0  0  0
 13 14  4  0  0  0  0
 13 28  1  0  0  0  0
 14 29  1  0  0  0  0
M  END
$$$$
