5STX
  PyMOL2.5          3D                             0

 20 21  0  0  0  0  0  0  0  0999 V2000
   52.8933  -38.1095   -9.0309 N   0  0  0  0  0  0  0  0  0  0  0  0
   53.1476  -37.0647   -9.3635 C   0  0  0  0  0  0  0  0  0  0  0  0
   51.9705  -36.0569  -11.6104 O   0  0  0  0  0  0  0  0  0  0  0  0
   53.3929  -35.7614   -9.8605 C   0  0  0  0  0  0  0  0  0  0  0  0
   54.4131  -33.6687   -9.5846 N   0  0  0  0  0  0  0  0  0  0  0  0
   54.7246  -35.2188   -8.0042 O   0  0  0  0  0  0  0  0  0  0  0  0
   52.7795  -35.3649  -10.9343 C   0  0  0  0  0  0  0  0  0  0  0  0
   52.9209  -34.0593  -11.3999 C   0  0  0  0  0  0  0  0  0  0  0  0
   52.1843  -33.5827  -12.4570 C   0  0  0  0  0  0  0  0  0  0  0  0
   52.1492  -32.2253  -12.7383 C   0  0  0  0  0  0  0  0  0  0  0  0
   52.9470  -31.3652  -12.0502 C   0  0  0  0  0  0  0  0  0  0  0  0
   53.7526  -31.8387  -11.0345 C   0  0  0  0  0  0  0  0  0  0  0  0
   53.7419  -33.2055  -10.6949 C   0  0  0  0  0  0  0  0  0  0  0  0
   54.2654  -34.9096   -9.0891 C   0  0  0  0  0  0  0  0  0  0  0  0
   55.0520  -33.0323   -9.1185 H   0  0  0  0  0  0  0  0  0  0  0  0
   52.3061  -36.1984  -12.5346 H   0  0  0  0  0  0  0  0  0  0  0  0
   51.8707  -34.2678  -13.1880 H   0  0  0  0  0  0  0  0  0  0  0  0
   51.4816  -31.8499  -13.5122 H   0  0  0  0  0  0  0  0  0  0  0  0
   52.9537  -30.3043  -12.2952 H   0  0  0  0  0  0  0  0  0  0  0  0
   54.4394  -31.1635  -10.5482 H   0  0  0  0  0  0  0  0  0  0  0  0
  1  2  3  0  0  0  0
  3 16  1  0  0  0  0
  2  4  1  0  0  0  0
  5 13  4  0  0  0  0
  5 14  4  0  0  0  0
  5 15  1  0  0  0  0
  6 14  2  0  0  0  0
  3  7  1  0  0  0  0
  4  7  4  0  0  0  0
  7  8  4  0  0  0  0
  8  9  4  0  0  0  0
  9 10  4  0  0  0  0
  9 17  1  0  0  0  0
 10 11  4  0  0  0  0
 10 18  1  0  0  0  0
 11 12  4  0  0  0  0
 11 19  1  0  0  0  0
 12 20  1  0  0  0  0
  8 13  4  0  0  0  0
 12 13  4  0  0  0  0
  4 14  4  0  0  0  0
M  END
$$$$
