5SU2
  PyMOL2.5          3D                             0

 14 15  0  0  0  0  0  0  0  0999 V2000
   36.6236   -5.5244   -8.8226 N   0  0  0  0  0  0  0  0  0  0  0  0
   35.0817   -4.8002  -10.4868 C   0  0  0  0  0  0  0  0  0  0  0  0
   36.4576   -4.9900   -9.9937 C   0  0  0  0  0  0  0  0  0  0  0  0
   37.9241   -6.7746   -7.3576 N   0  0  0  0  0  0  0  0  0  0  0  0
   37.4658   -4.7420  -10.8005 C   0  0  0  0  0  0  0  0  0  0  0  0
   37.8897   -8.6180   -4.9489 N   0  3  0  0  0  0  0  0  0  0  0  0
   38.6861   -5.1297  -10.3756 C   0  0  0  0  0  0  0  0  0  0  0  0
   38.9298   -5.7273   -9.2118 C   0  0  0  0  0  0  0  0  0  0  0  0
   37.8781   -5.9345   -8.4922 C   0  0  0  0  0  0  0  0  0  0  0  0
   36.7025   -7.4463   -6.9933 C   0  0  0  0  0  0  0  0  0  0  0  0
   36.7495   -8.9748   -7.0832 C   0  0  0  0  0  0  0  0  0  0  0  0
   36.8884   -9.5147   -5.6754 C   0  0  0  0  0  0  0  0  0  0  0  0
   39.1424   -8.3208   -5.7998 C   0  0  0  0  0  0  0  0  0  0  0  0
   39.1112   -6.9243   -6.5273 C   0  0  0  0  0  0  0  0  0  0  0  0
  1  3  4  0  0  0  0
  2  3  1  0  0  0  0
  3  5  4  0  0  0  0
  4  9  1  0  0  0  0
  4 10  1  0  0  0  0
  4 14  1  0  0  0  0
  6 13  1  0  0  0  0
  5  7  4  0  0  0  0
  7  8  4  0  0  0  0
  1  9  4  0  0  0  0
  8  9  4  0  0  0  0
 10 11  1  0  0  0  0
 11 12  1  0  0  0  0
  6 12  1  0  0  0  0
 13 14  1  0  0  0  0
M  END
$$$$
