5SU8
  PyMOL2.5          3D                             0

 15 16  0  0  0  0  0  0  0  0999 V2000
   53.5568   58.5014   20.6591 N   0  3  0  0  0  0  0  0  0  0  0  0
   53.6992   59.4551   19.4667 C   0  0  0  0  0  0  0  0  0  0  0  0
   51.9119   56.6083   14.5017 O   0  0  0  0  0  0  0  0  0  0  0  0
   54.2708   58.8168   18.2080 C   0  0  0  0  0  0  0  0  0  0  0  0
   53.7817   56.3331   15.9510 N   0  0  0  0  0  0  0  0  0  0  0  0
   55.2271   59.7875   17.5673 C   0  0  0  0  0  0  0  0  0  0  0  0
   54.5252   61.1024   17.2767 C   0  0  0  0  0  0  0  0  0  0  0  0
   53.0029   60.9943   17.1687 C   0  0  0  0  0  0  0  0  0  0  0  0
   52.4419   59.6379   16.7218 C   0  0  0  0  0  0  0  0  0  0  0  0
   53.2154   58.4147   17.1626 C   0  0  0  0  0  0  0  0  0  0  0  0
   53.8037   57.7869   15.9149 C   0  0  0  0  0  0  0  0  0  0  0  0
   55.0226   55.7714   15.5138 C   0  0  0  0  0  0  0  0  0  0  0  0
   54.7499   55.3818   14.0552 C   0  0  0  0  0  0  0  0  0  0  0  0
   53.3809   54.8098   14.1151 C   0  0  0  0  0  0  0  0  0  0  0  0
   52.6806   55.6785   15.1288 C   0  0  0  0  0  0  0  0  0  0  0  0
  1  2  1  0  0  0  0
  3 15  1  0  0  0  0
  2  4  1  0  0  0  0
  4  6  1  0  0  0  0
  4 10  1  0  0  0  0
  5 11  1  0  0  0  0
  5 12  1  0  0  0  0
  5 15  1  0  0  0  0
  6  7  1  0  0  0  0
  7  8  1  0  0  0  0
  8  9  1  0  0  0  0
  9 10  1  0  0  0  0
 10 11  1  0  0  0  0
 12 13  1  0  0  0  0
 13 14  1  0  0  0  0
 14 15  1  0  0  0  0
M  END
$$$$
