5SUG
  PyMOL2.5          3D                             0

 30 30  0  0  0  0  0  0  0  0999 V2000
   73.4794   47.9671   -5.3818 C   0  0  0  0  0  0  0  0  0  0  0  0
   75.3917   45.6833   -6.2921 O   0  0  0  0  0  0  0  0  0  0  0  0
   74.0297   47.5823   -6.7481 C   0  0  0  0  0  0  0  0  0  0  0  0
   74.8361   43.5857   -6.1539 O   0  0  0  0  0  0  0  0  0  0  0  0
   75.3928   48.2348   -6.9529 C   0  0  0  0  0  0  0  0  0  0  0  0
   78.8760   42.7299   -1.6569 O   0  0  0  0  0  0  0  0  0  0  0  0
   74.1546   46.0373   -6.8683 C   0  0  0  0  0  0  0  0  0  0  0  0
   78.0720   40.5352   -2.1975 O   0  0  0  0  0  0  0  0  0  0  0  0
   75.6984   44.4084   -5.9501 C   0  0  0  0  0  0  0  0  0  0  0  0
   77.0264   44.0656   -5.3545 C   0  0  0  0  0  0  0  0  0  0  0  0
   76.8908   42.7132   -4.6971 C   0  0  0  0  0  0  0  0  0  0  0  0
   78.2209   42.2411   -4.0978 C   0  0  0  0  0  0  0  0  0  0  0  0
   76.4879   42.4720   -2.3845 C   0  0  0  0  0  0  0  0  0  0  0  0
   75.9498   42.8577   -3.5365 C   0  0  0  0  0  0  0  0  0  0  0  0
   78.0159   41.9188   -2.4039 S   0  0  0  0  0  0  0  0  0  0  0  0
   -3.8591   31.7990  -25.0108 C   0  0  0  0  0  0  0  0  0  0  0  0
   -2.0489   33.6723  -23.9324 O   0  0  0  0  0  0  0  0  0  0  0  0
   -4.2492   32.9630  -24.1138 C   0  0  0  0  0  0  0  0  0  0  0  0
   -1.5818   35.2901  -22.5636 O   0  0  0  0  0  0  0  0  0  0  0  0
   -5.4993   32.6177  -23.3101 C   0  0  0  0  0  0  0  0  0  0  0  0
    1.1320   39.7039  -22.7410 O   0  0  0  0  0  0  0  0  0  0  0  0
   -3.1113   33.2194  -23.1257 C   0  0  0  0  0  0  0  0  0  0  0  0
   -0.7085   39.7651  -24.3071 O   0  0  0  0  0  0  0  0  0  0  0  0
   -1.2899   34.7551  -23.5968 C   0  0  0  0  0  0  0  0  0  0  0  0
   -0.1601   35.2313  -24.4638 C   0  0  0  0  0  0  0  0  0  0  0  0
   -0.2304   36.7430  -24.6050 C   0  0  0  0  0  0  0  0  0  0  0  0
   -0.1635   37.5213  -23.2783 C   0  0  0  0  0  0  0  0  0  0  0  0
    1.3439   38.4444  -24.9209 C   0  0  0  0  0  0  0  0  0  0  0  0
    0.9923   37.2296  -25.3420 C   0  0  0  0  0  0  0  0  0  0  0  0
    0.3902   39.0888  -23.7667 S   0  0  0  0  0  0  0  0  0  0  0  0
  1  3  1  0  0  0  0
  3  5  1  0  0  0  0
  3  7  1  0  0  0  0
  4  9  2  0  0  0  0
  2  7  1  0  0  0  0
  8 15  2  0  0  0  0
  2  9  1  0  0  0  0
  9 10  1  0  0  0  0
 10 11  1  0  0  0  0
 11 12  1  0  0  0  0
 12 15  1  0  0  0  0
 13 14  1  0  0  0  0
 13 15  1  0  0  0  0
 11 14  1  0  0  0  0
  6 15  2  0  0  0  0
 16 18  1  0  0  0  0
 18 20  1  0  0  0  0
 18 22  1  0  0  0  0
 19 24  2  0  0  0  0
 17 22  1  0  0  0  0
 23 30  2  0  0  0  0
 17 24  1  0  0  0  0
 24 25  1  0  0  0  0
 25 26  1  0  0  0  0
 26 27  1  0  0  0  0
 27 30  1  0  0  0  0
 28 29  1  0  0  0  0
 28 30  1  0  0  0  0
 26 29  1  0  0  0  0
 21 30  2  0  0  0  0
M  END
$$$$
