7FK1
  PyMOL2.5          3D                             0

 48 48  0  0  0  0  0  0  0  0999 V2000
   83.5506   41.9975   -5.4508 C   0  0  0  0  0  0  0  0  0  0  0  0
   83.6758   40.3649   -6.7198 C   0  0  0  0  0  0  0  0  0  0  0  0
   87.4810   41.4064   -6.0417 O   0  5  0  0  0  0  0  0  0  0  0  0
   87.4066   41.5539   -6.1316 O   0  0  0  0  0  0  0  0  0  0  0  0
   82.7791   33.8029   -3.5795 Cl  0  0  0  0  0  0  0  0  0  0  0  0
   84.8292   33.7077   -5.9021 Cl  0  0  0  0  0  0  0  0  0  0  0  0
   84.1658   40.8691   -4.6395 C   0  0  0  0  0  0  0  0  0  0  0  0
   84.1293   40.5840   -5.2847 C   0  0  0  0  0  0  0  0  0  0  0  0
   86.0993   42.6362   -4.8673 O   0  0  0  0  0  0  0  0  0  0  0  0
   85.9383   42.6804   -4.9214 O   0  0  0  0  0  0  0  0  0  0  0  0
   85.4515   40.3748   -5.3071 C   0  0  0  0  0  0  0  0  0  0  0  0
   85.6312   40.3325   -5.1223 C   0  0  0  0  0  0  0  0  0  0  0  0
   81.6886   40.4997   -4.1700 O   0  0  0  0  0  0  0  0  0  0  0  0
   83.6465   39.7188   -2.8612 O   0  0  0  0  0  0  0  0  0  0  0  0
   86.4153   41.5603   -5.4154 C   0  0  0  0  0  0  0  0  0  0  0  0
   86.3842   41.6254   -5.4141 C   0  0  0  0  0  0  0  0  0  0  0  0
   82.6130   39.6881   -6.3025 O   0  0  0  0  0  0  0  0  0  0  0  0
   81.8069   39.6789   -4.5118 O   0  0  0  0  0  0  0  0  0  0  0  0
   82.9282   38.2345   -4.1783 C   0  0  0  0  0  0  0  0  0  0  0  0
   83.6500   37.8537   -4.6762 C   0  0  0  0  0  0  0  0  0  0  0  0
   81.8310   37.6556   -3.5647 C   0  0  0  0  0  0  0  0  0  0  0  0
   84.7496   37.2527   -4.0879 C   0  0  0  0  0  0  0  0  0  0  0  0
   81.8052   36.2938   -3.3449 C   0  0  0  0  0  0  0  0  0  0  0  0
   85.0992   35.9656   -4.4510 C   0  0  0  0  0  0  0  0  0  0  0  0
   82.8879   35.5347   -3.7090 C   0  0  0  0  0  0  0  0  0  0  0  0
   84.3471   35.3039   -5.3971 C   0  0  0  0  0  0  0  0  0  0  0  0
   84.0288   36.1114   -4.2384 C   0  0  0  0  0  0  0  0  0  0  0  0
   83.2445   35.8893   -5.9780 C   0  0  0  0  0  0  0  0  0  0  0  0
   84.0511   37.4779   -4.4708 C   0  0  0  0  0  0  0  0  0  0  0  0
   82.8917   37.1785   -5.6173 C   0  0  0  0  0  0  0  0  0  0  0  0
   82.7480   39.8413   -4.8802 S   0  0  0  0  0  0  0  0  0  0  0  0
   83.1994   39.4949   -4.2087 S   0  0  0  0  0  0  0  0  0  0  0  0
   53.0600   15.4715   12.8973 C   0  0  0  0  0  0  0  0  0  0  0  0
   55.4067   14.1484   12.9849 O   0  5  0  0  0  0  0  0  0  0  0  0
   47.9203   11.3890   12.9000 Cl  0  0  0  0  0  0  0  0  0  0  0  0
   53.4372   15.2967   14.3098 C   0  0  0  0  0  0  0  0  0  0  0  0
   54.9022   12.1168   13.6445 O   0  0  0  0  0  0  0  0  0  0  0  0
   53.7729   13.9147   14.5585 C   0  0  0  0  0  0  0  0  0  0  0  0
   51.6207   16.5731   15.1023 O   0  0  0  0  0  0  0  0  0  0  0  0
   54.7872   13.3470   13.6286 C   0  0  0  0  0  0  0  0  0  0  0  0
   52.3110   15.0351   16.4491 O   0  0  0  0  0  0  0  0  0  0  0  0
   51.1394   14.2359   14.3560 C   0  0  0  0  0  0  0  0  0  0  0  0
   50.4008   14.5004   13.2430 C   0  0  0  0  0  0  0  0  0  0  0  0
   49.4301   13.6203   12.7519 C   0  0  0  0  0  0  0  0  0  0  0  0
   49.2388   12.4068   13.3625 C   0  0  0  0  0  0  0  0  0  0  0  0
   50.0151   12.0587   14.3993 C   0  0  0  0  0  0  0  0  0  0  0  0
   50.9534   12.9706   14.9099 C   0  0  0  0  0  0  0  0  0  0  0  0
   52.1339   15.4315   15.1931 S   0  0  0  0  0  0  0  0  0  0  0  0
  1  7  1  0  0  0  0
  7 11  1  0  0  0  0
  7 31  1  0  0  0  0
  2  8  1  0  0  0  0
  8 12  1  0  0  0  0
  8 32  1  0  0  0  0
  9 15  4  0  0  0  0
 10 16  4  0  0  0  0
  3 15  4  0  0  0  0
 11 15  1  0  0  0  0
  4 16  4  0  0  0  0
 12 16  1  0  0  0  0
 17 31  2  0  0  0  0
 18 32  2  0  0  0  0
 19 31  1  0  0  0  0
 20 32  1  0  0  0  0
 19 21  4  0  0  0  0
 21 23  4  0  0  0  0
 20 22  4  0  0  0  0
 22 24  4  0  0  0  0
  5 25  1  0  0  0  0
 23 25  4  0  0  0  0
 25 27  4  0  0  0  0
  6 26  1  0  0  0  0
 24 26  4  0  0  0  0
 26 28  4  0  0  0  0
 27 29  4  0  0  0  0
 28 30  4  0  0  0  0
 19 29  4  0  0  0  0
 20 30  4  0  0  0  0
 13 31  2  0  0  0  0
 14 32  2  0  0  0  0
 33 36  1  0  0  0  0
 36 38  1  0  0  0  0
 36 48  1  0  0  0  0
 37 40  4  0  0  0  0
 34 40  4  0  0  0  0
 38 40  1  0  0  0  0
 41 48  2  0  0  0  0
 42 48  1  0  0  0  0
 42 43  4  0  0  0  0
 43 44  4  0  0  0  0
 35 45  1  0  0  0  0
 44 45  4  0  0  0  0
 45 46  4  0  0  0  0
 46 47  4  0  0  0  0
 42 47  4  0  0  0  0
 39 48  2  0  0  0  0
M  END
$$$$
