7FK3
  PyMOL2.5          3D                             0

 16 16  0  0  0  0  0  0  0  0999 V2000
  -35.3717   18.7258    3.8916 N   0  0  0  0  0  0  0  0  0  0  0  0
  -34.5138   18.5517    2.6574 C   0  0  0  0  0  0  0  0  0  0  0  0
  -34.4616   16.3971    6.3186 O   0  0  0  0  0  0  0  0  0  0  0  0
  -35.2008   18.1777    5.2193 C   0  0  0  0  0  0  0  0  0  0  0  0
  -33.6593   16.7985    4.4177 O   0  0  0  0  0  0  0  0  0  0  0  0
  -34.4486   17.0564    5.3694 C   0  0  0  0  0  0  0  0  0  0  0  0
  -36.3966   20.3665    2.8458 O   0  0  0  0  0  0  0  0  0  0  0  0
  -32.9657   15.8721    4.2229 C   0  0  0  0  0  0  0  0  0  0  0  0
  -36.9675   20.0936    4.9641 O   0  0  0  0  0  0  0  0  0  0  0  0
  -37.5577   18.4679    3.4592 C   0  0  0  0  0  0  0  0  0  0  0  0
  -38.3371   17.9254    4.3678 C   0  0  0  0  0  0  0  0  0  0  0  0
  -38.9802   16.8230    4.1475 C   0  0  0  0  0  0  0  0  0  0  0  0
  -38.8660   16.2386    2.9314 C   0  0  0  0  0  0  0  0  0  0  0  0
  -38.1097   16.7952    1.9589 C   0  0  0  0  0  0  0  0  0  0  0  0
  -37.4618   17.9139    2.2419 C   0  0  0  0  0  0  0  0  0  0  0  0
  -36.6479   19.5841    3.8146 S   0  0  0  0  0  0  0  0  0  0  0  0
  1  2  1  0  0  0  0
  1  4  1  0  0  0  0
  4  6  1  0  0  0  0
  5  6  1  0  0  0  0
  5  8  1  0  0  0  0
  3  6  2  0  0  0  0
  9 16  2  0  0  0  0
 10 16  1  0  0  0  0
 10 11  4  0  0  0  0
 11 12  4  0  0  0  0
 12 13  4  0  0  0  0
 13 14  4  0  0  0  0
 14 15  4  0  0  0  0
 10 15  4  0  0  0  0
  1 16  1  0  0  0  0
  7 16  2  0  0  0  0
M  END
$$$$
