7FK6
  PyMOL2.5          3D                             0

 16 17  0  0  0  0  0  0  0  0999 V2000
  -10.6989  -20.2170   31.7709 N   0  0  0  0  0  0  0  0  0  0  0  0
  -14.9149  -22.4962   32.1385 C   0  0  0  0  0  0  0  0  0  0  0  0
  -14.6918  -22.4109   30.7501 O   0  0  0  0  0  0  0  0  0  0  0  0
  -13.5132  -21.9753   30.2960 C   0  0  0  0  0  0  0  0  0  0  0  0
  -13.3223  -21.9383   29.1159 O   0  0  0  0  0  0  0  0  0  0  0  0
  -12.5493  -21.5932   31.3728 C   0  0  0  0  0  0  0  0  0  0  0  0
  -11.6612  -18.8925   33.4264 O   0  0  0  0  0  0  0  0  0  0  0  0
  -13.0280  -20.3563   32.1001 C   0  0  0  0  0  0  0  0  0  0  0  0
  -11.7500  -19.7148   32.5492 C   0  0  0  0  0  0  0  0  0  0  0  0
  -11.1783  -21.1551   30.7767 C   0  0  0  0  0  0  0  0  0  0  0  0
   -9.3330  -19.9226   31.8769 C   0  0  0  0  0  0  0  0  0  0  0  0
   -8.7937  -19.4838   33.0633 C   0  0  0  0  0  0  0  0  0  0  0  0
   -7.4658  -19.1846   33.1232 C   0  0  0  0  0  0  0  0  0  0  0  0
   -6.6581  -19.3168   32.0097 C   0  0  0  0  0  0  0  0  0  0  0  0
   -7.2151  -19.7684   30.8384 C   0  0  0  0  0  0  0  0  0  0  0  0
   -8.5454  -20.0730   30.7682 C   0  0  0  0  0  0  0  0  0  0  0  0
  2  3  1  0  0  0  0
  3  4  1  0  0  0  0
  4  6  1  0  0  0  0
  4  5  2  0  0  0  0
  6  8  1  0  0  0  0
  1  9  1  0  0  0  0
  7  9  2  0  0  0  0
  8  9  1  0  0  0  0
  1 10  1  0  0  0  0
  6 10  1  0  0  0  0
  1 11  1  0  0  0  0
 11 16  4  0  0  0  0
 11 12  4  0  0  0  0
 12 13  4  0  0  0  0
 13 14  4  0  0  0  0
 14 15  4  0  0  0  0
 15 16  4  0  0  0  0
M  END
$$$$
