7FKJ
  PyMOL2.5          3D                             0

 17 17  0  0  0  0  0  0  0  0999 V2000
    2.8796   18.4953  -12.3493 N   0  0  0  0  0  0  0  0  0  0  0  0
    3.5482   14.2379  -12.7772 C   0  0  0  0  0  0  0  0  0  0  0  0
    4.7396   19.7221  -11.3682 O   0  0  0  0  0  0  0  0  0  0  0  0
    0.3990   19.4509   -9.1933 Cl  0  0  0  0  0  0  0  0  0  0  0  0
    3.2559   15.5490  -12.1907 C   0  0  0  0  0  0  0  0  0  0  0  0
    1.1223   21.8846   -9.8119 N   0  0  0  0  0  0  0  0  0  0  0  0
    3.4732   18.1064  -10.0075 O   0  0  0  0  0  0  0  0  0  0  0  0
    2.1526   16.2329  -12.9321 C   0  0  0  0  0  0  0  0  0  0  0  0
    3.0680   21.6882  -10.8140 N   0  0  0  0  0  0  0  0  0  0  0  0
    1.7368   17.5646  -12.3202 C   0  0  0  0  0  0  0  0  0  0  0  0
    0.4760   18.1002  -12.9880 C   0  0  0  0  0  0  0  0  0  0  0  0
    3.1587   19.2311  -13.5845 C   0  0  0  0  0  0  0  0  0  0  0  0
    2.5964   20.4113  -10.5526 C   0  0  0  0  0  0  0  0  0  0  0  0
    1.4083   20.5565   -9.9182 C   0  0  0  0  0  0  0  0  0  0  0  0
    2.1563   22.5087  -10.3596 C   0  0  0  0  0  0  0  0  0  0  0  0
   -0.0518   22.4721   -9.1726 C   0  0  0  0  0  0  0  0  0  0  0  0
    3.5055   19.1197  -11.0039 S   0  0  0  0  0  0  0  0  0  0  0  0
  2  5  1  0  0  0  0
  5  8  1  0  0  0  0
  6 14  4  0  0  0  0
  6 15  4  0  0  0  0
  6 16  1  0  0  0  0
  7 17  2  0  0  0  0
  9 13  4  0  0  0  0
  1 10  1  0  0  0  0
  8 10  1  0  0  0  0
 10 11  1  0  0  0  0
  1 12  1  0  0  0  0
 13 17  1  0  0  0  0
  4 14  1  0  0  0  0
 13 14  4  0  0  0  0
  9 15  4  0  0  0  0
  1 17  1  0  0  0  0
  3 17  2  0  0  0  0
M  END
$$$$
