7FKS
  PyMOL2.5          3D                             0

 13 14  0  0  0  0  0  0  0  0999 V2000
    7.8348  -11.4740  -45.4185 N   0  0  0  0  0  0  0  0  0  0  0  0
    7.1192  -10.8642  -44.4461 C   0  0  0  0  0  0  0  0  0  0  0  0
    6.8616   -7.2942  -45.5274 Cl  0  0  0  0  0  0  0  0  0  0  0  0
    8.2275  -10.7738  -46.4328 C   0  0  0  0  0  0  0  0  0  0  0  0
    6.7962   -9.5924  -44.4313 N   0  0  0  0  0  0  0  0  0  0  0  0
    7.9201   -9.3888  -46.5499 C   0  0  0  0  0  0  0  0  0  0  0  0
    8.2639   -8.5400  -47.5394 N   0  0  0  0  0  0  0  0  0  0  0  0
    7.2066   -8.9181  -45.4664 C   0  0  0  0  0  0  0  0  0  0  0  0
    9.0802  -11.3698  -47.3669 N   0  0  0  0  0  0  0  0  0  0  0  0
    9.1470  -12.8506  -47.2431 C   0  0  0  0  0  0  0  0  0  0  0  0
    9.6974  -13.3097  -48.5701 C   0  0  0  0  0  0  0  0  0  0  0  0
    9.7660  -12.0354  -49.4264 C   0  0  0  0  0  0  0  0  0  0  0  0
    8.8131  -11.0453  -48.7563 C   0  0  0  0  0  0  0  0  0  0  0  0
  1  2  4  0  0  0  0
  1  4  4  0  0  0  0
  4  6  4  0  0  0  0
  4  9  1  0  0  0  0
  2  5  4  0  0  0  0
  5  8  4  0  0  0  0
  6  7  1  0  0  0  0
  3  8  1  0  0  0  0
  6  8  4  0  0  0  0
  9 10  1  0  0  0  0
 10 11  1  0  0  0  0
 11 12  1  0  0  0  0
  9 13  1  0  0  0  0
 12 13  1  0  0  0  0
M  END
$$$$
