7FKW
  PyMOL2.5          3D                             0

 16 17  0  0  0  0  0  0  0  0999 V2000
   13.6332   -7.5171   48.4335 N   0  3  0  0  0  0  0  0  0  0  0  0
   16.4405  -10.2179   51.6944 C   0  0  0  0  0  0  0  0  0  0  0  0
   14.4395   -9.2122   46.0999 O   0  0  0  0  0  0  0  0  0  0  0  0
   16.6270  -10.6739   50.4097 C   0  0  0  0  0  0  0  0  0  0  0  0
   14.3446   -7.3278   45.0246 O   0  5  0  0  0  0  0  0  0  0  0  0
   16.2242   -9.8890   49.3549 C   0  0  0  0  0  0  0  0  0  0  0  0
   15.6259   -8.6534   49.5772 C   0  0  0  0  0  0  0  0  0  0  0  0
   15.4537   -8.1978   50.8654 C   0  0  0  0  0  0  0  0  0  0  0  0
   15.8640   -8.9860   51.9194 C   0  0  0  0  0  0  0  0  0  0  0  0
   15.1646   -7.8549   48.4036 C   0  0  0  0  0  0  0  0  0  0  0  0
   12.8530   -8.3454   49.4593 C   0  0  0  0  0  0  0  0  0  0  0  0
   11.3138   -8.3032   49.3494 C   0  0  0  0  0  0  0  0  0  0  0  0
   10.7924   -7.7022   48.0610 C   0  0  0  0  0  0  0  0  0  0  0  0
   11.6628   -8.1229   46.9294 C   0  0  0  0  0  0  0  0  0  0  0  0
   13.0324   -7.5029   47.0009 C   0  0  0  0  0  0  0  0  0  0  0  0
   14.0766   -8.0851   45.9103 C   0  0  0  0  0  0  0  0  0  0  0  0
  2  4  4  0  0  0  0
  4  6  4  0  0  0  0
  5 16  4  0  0  0  0
  6  7  4  0  0  0  0
  7  8  4  0  0  0  0
  2  9  4  0  0  0  0
  8  9  4  0  0  0  0
  1 10  1  0  0  0  0
  7 10  1  0  0  0  0
  1 11  1  0  0  0  0
 11 12  1  0  0  0  0
 12 13  1  0  0  0  0
 13 14  1  0  0  0  0
  1 15  1  0  0  0  0
 14 15  1  0  0  0  0
  3 16  4  0  0  0  0
 15 16  1  0  0  0  0
M  END
$$$$
