7FL3
  PyMOL2.5          3D                             0

 60 64  0  0  0  0  0  0  0  0999 V2000
   82.6989   15.7653    8.5996 N   0  0  0  0  0  0  0  0  0  0  0  0
   82.4803   14.5783    6.2583 C   0  0  0  0  0  0  0  0  0  0  0  0
   78.9622   13.6452    9.0923 O   0  0  0  0  0  0  0  0  0  0  0  0
   81.4724   15.2756    8.5714 C   0  0  0  0  0  0  0  0  0  0  0  0
   78.2813   15.5831   10.0263 N   0  0  0  0  0  0  0  0  0  0  0  0
   80.6698   15.2018    9.6217 C   0  0  0  0  0  0  0  0  0  0  0  0
   81.1900   15.6231   10.7986 C   0  0  0  0  0  0  0  0  0  0  0  0
   82.4711   16.1189   10.8813 C   0  0  0  0  0  0  0  0  0  0  0  0
   83.1948   16.1861    9.7497 C   0  0  0  0  0  0  0  0  0  0  0  0
   79.2612   14.7183    9.5579 C   0  0  0  0  0  0  0  0  0  0  0  0
   78.5811   16.9242   10.4458 C   0  0  0  0  0  0  0  0  0  0  0  0
   77.4138   17.3775   11.2865 C   0  0  0  0  0  0  0  0  0  0  0  0
   76.2729   16.5578   10.7552 C   0  0  0  0  0  0  0  0  0  0  0  0
   76.8766   15.2476   10.2910 C   0  0  0  0  0  0  0  0  0  0  0  0
   80.9572   14.6106    7.1308 S   0  0  0  0  0  0  0  0  0  0  0  0
   16.0279   42.3156  -20.5743 N   0  0  0  0  0  0  0  0  0  0  0  0
   15.9940   40.0079  -18.8491 C   0  0  0  0  0  0  0  0  0  0  0  0
   15.7357   39.6742  -24.1322 O   0  0  0  0  0  0  0  0  0  0  0  0
   16.3302   41.2590  -21.3380 C   0  0  0  0  0  0  0  0  0  0  0  0
   17.9202   39.7245  -23.8081 N   0  0  0  0  0  0  0  0  0  0  0  0
   16.4888   41.3563  -22.7003 C   0  0  0  0  0  0  0  0  0  0  0  0
   16.3868   42.6012  -23.2910 C   0  0  0  0  0  0  0  0  0  0  0  0
   16.1030   43.6994  -22.5147 C   0  0  0  0  0  0  0  0  0  0  0  0
   15.9226   43.5038  -21.1632 C   0  0  0  0  0  0  0  0  0  0  0  0
   16.6676   40.2030  -23.5920 C   0  0  0  0  0  0  0  0  0  0  0  0
   19.1009   40.2864  -23.1706 C   0  0  0  0  0  0  0  0  0  0  0  0
   20.2849   39.7078  -23.9551 C   0  0  0  0  0  0  0  0  0  0  0  0
   19.6855   38.8618  -25.0841 C   0  0  0  0  0  0  0  0  0  0  0  0
   18.2266   38.6206  -24.7042 C   0  0  0  0  0  0  0  0  0  0  0  0
   16.5852   39.7587  -20.5199 S   0  0  0  0  0  0  0  0  0  0  0  0
   38.3994   39.4940  -14.4156 N   0  0  0  0  0  0  0  0  0  0  0  0
   38.4172   36.6742  -14.3180 C   0  0  0  0  0  0  0  0  0  0  0  0
   42.6243   38.9703  -14.1169 O   0  0  0  0  0  0  0  0  0  0  0  0
   39.5980   39.1165  -13.9110 C   0  0  0  0  0  0  0  0  0  0  0  0
   42.5504   39.8882  -12.1838 N   0  0  0  0  0  0  0  0  0  0  0  0
   40.6097   40.0127  -13.6579 C   0  0  0  0  0  0  0  0  0  0  0  0
   40.3736   41.3407  -13.8350 C   0  0  0  0  0  0  0  0  0  0  0  0
   39.1597   41.7447  -14.3202 C   0  0  0  0  0  0  0  0  0  0  0  0
   38.2055   40.7881  -14.6182 C   0  0  0  0  0  0  0  0  0  0  0  0
   41.9796   39.5713  -13.3518 C   0  0  0  0  0  0  0  0  0  0  0  0
   41.8995   40.6788  -11.1603 C   0  0  0  0  0  0  0  0  0  0  0  0
   42.8974   40.6280   -9.9736 C   0  0  0  0  0  0  0  0  0  0  0  0
   44.2698   40.3292  -10.5940 C   0  0  0  0  0  0  0  0  0  0  0  0
   43.9293   39.4796  -11.8260 C   0  0  0  0  0  0  0  0  0  0  0  0
   39.8058   37.4485  -13.4834 S   0  0  0  0  0  0  0  0  0  0  0  0
   43.7795   30.1892   -4.8139 N   0  0  0  0  0  0  0  0  0  0  0  0
   42.5834   27.6940   -5.5658 C   0  0  0  0  0  0  0  0  0  0  0  0
   46.9790   29.4351   -7.7046 O   0  0  0  0  0  0  0  0  0  0  0  0
   44.6934   29.5289   -5.5345 C   0  0  0  0  0  0  0  0  0  0  0  0
   47.9800   28.5573   -5.9195 N   0  0  0  0  0  0  0  0  0  0  0  0
   46.0030   29.9646   -5.6376 C   0  0  0  0  0  0  0  0  0  0  0  0
   46.3858   31.1051   -4.9562 C   0  0  0  0  0  0  0  0  0  0  0  0
   45.4523   31.7944   -4.2257 C   0  0  0  0  0  0  0  0  0  0  0  0
   44.1625   31.3085   -4.1902 C   0  0  0  0  0  0  0  0  0  0  0  0
   46.9985   29.3098   -6.4999 C   0  0  0  0  0  0  0  0  0  0  0  0
   48.1308   28.3728   -4.4956 C   0  0  0  0  0  0  0  0  0  0  0  0
   48.9975   27.1111   -4.3457 C   0  0  0  0  0  0  0  0  0  0  0  0
   49.7462   26.9750   -5.6625 C   0  0  0  0  0  0  0  0  0  0  0  0
   48.9936   27.8449   -6.6760 C   0  0  0  0  0  0  0  0  0  0  0  0
   44.1555   28.1009   -6.3542 S   0  0  0  0  0  0  0  0  0  0  0  0
  1  4  4  0  0  0  0
  4  6  4  0  0  0  0
  4 15  1  0  0  0  0
  5 10  1  0  0  0  0
  5 11  1  0  0  0  0
  5 14  1  0  0  0  0
  6  7  4  0  0  0  0
  7  8  4  0  0  0  0
  1  9  4  0  0  0  0
  8  9  4  0  0  0  0
  3 10  2  0  0  0  0
  6 10  1  0  0  0  0
 11 12  1  0  0  0  0
 12 13  1  0  0  0  0
 13 14  1  0  0  0  0
  2 15  1  0  0  0  0
 16 19  4  0  0  0  0
 19 21  4  0  0  0  0
 19 30  1  0  0  0  0
 20 25  1  0  0  0  0
 20 26  1  0  0  0  0
 20 29  1  0  0  0  0
 21 22  4  0  0  0  0
 22 23  4  0  0  0  0
 16 24  4  0  0  0  0
 23 24  4  0  0  0  0
 18 25  2  0  0  0  0
 21 25  1  0  0  0  0
 26 27  1  0  0  0  0
 27 28  1  0  0  0  0
 28 29  1  0  0  0  0
 17 30  1  0  0  0  0
 31 34  4  0  0  0  0
 34 36  4  0  0  0  0
 34 45  1  0  0  0  0
 35 40  1  0  0  0  0
 35 41  1  0  0  0  0
 35 44  1  0  0  0  0
 36 37  4  0  0  0  0
 37 38  4  0  0  0  0
 31 39  4  0  0  0  0
 38 39  4  0  0  0  0
 33 40  2  0  0  0  0
 36 40  1  0  0  0  0
 41 42  1  0  0  0  0
 42 43  1  0  0  0  0
 43 44  1  0  0  0  0
 32 45  1  0  0  0  0
 46 49  4  0  0  0  0
 49 51  4  0  0  0  0
 49 60  1  0  0  0  0
 50 55  1  0  0  0  0
 50 56  4  0  0  0  0
 50 59  4  0  0  0  0
 51 52  4  0  0  0  0
 52 53  4  0  0  0  0
 46 54  4  0  0  0  0
 53 54  4  0  0  0  0
 48 55  2  0  0  0  0
 51 55  1  0  0  0  0
 56 57  4  0  0  0  0
 57 58  4  0  0  0  0
 58 59  4  0  0  0  0
 47 60  1  0  0  0  0
M  END
$$$$
