7FL6
  PyMOL2.5          3D                             0

 12 12  0  0  0  0  0  0  0  0999 V2000
    2.8211   17.9872  -12.4254 C   0  0  0  0  0  0  0  0  0  0  0  0
    4.0365   18.4176  -13.0076 O   0  0  0  0  0  0  0  0  0  0  0  0
    4.0039   18.9859  -14.2427 C   0  0  0  0  0  0  0  0  0  0  0  0
    2.9604   19.1198  -14.8033 O   0  0  0  0  0  0  0  0  0  0  0  0
    5.3550   19.3977  -14.7755 C   0  0  0  0  0  0  0  0  0  0  0  0
    6.0695   22.8003  -15.4596 O   0  0  0  0  0  0  0  0  0  0  0  0
    6.2611   20.1388  -13.7806 C   0  0  0  0  0  0  0  0  0  0  0  0
    6.6876   23.8954  -13.4346 O   0  0  0  0  0  0  0  0  0  0  0  0
    7.6529   20.3940  -14.4040 C   0  0  0  0  0  0  0  0  0  0  0  0
    8.0075   21.8603  -14.1790 C   0  0  0  0  0  0  0  0  0  0  0  0
    5.7177   21.5272  -13.3613 C   0  0  0  0  0  0  0  0  0  0  0  0
    6.5803   22.7178  -14.1811 S   0  0  0  0  0  0  0  0  0  0  0  0
  1  2  1  0  0  0  0
  2  3  1  0  0  0  0
  3  5  1  0  0  0  0
  3  4  2  0  0  0  0
  5  7  1  0  0  0  0
  8 12  2  0  0  0  0
  7  9  1  0  0  0  0
  9 10  1  0  0  0  0
 10 12  1  0  0  0  0
  7 11  1  0  0  0  0
 11 12  1  0  0  0  0
  6 12  2  0  0  0  0
M  END
$$$$
