7FL7
  PyMOL2.5          3D                             0

 17 18  0  0  0  0  0  0  0  0999 V2000
  -32.3515   28.2080  -21.7548 N   0  3  0  0  0  0  0  0  0  0  0  0
  -32.4231   27.7882  -18.5578 C   0  0  0  0  0  0  0  0  0  0  0  0
  -33.1770   24.8740  -20.6855 O   0  0  0  0  0  0  0  0  0  0  0  0
  -34.4009   29.0311  -15.3609 Cl  0  0  0  0  0  0  0  0  0  0  0  0
  -32.6998   28.2455  -17.2677 C   0  0  0  0  0  0  0  0  0  0  0  0
  -31.2297   25.8943  -21.1270 O   0  5  0  0  0  0  0  0  0  0  0  0
  -33.9780   28.7041  -16.9798 C   0  0  0  0  0  0  0  0  0  0  0  0
  -31.3926   29.8044  -23.7240 O   0  0  0  0  0  0  0  0  0  0  0  0
  -34.9725   28.7555  -17.9294 C   0  0  0  0  0  0  0  0  0  0  0  0
  -34.6888   28.2931  -19.2042 C   0  0  0  0  0  0  0  0  0  0  0  0
  -33.4250   27.7983  -19.5305 C   0  0  0  0  0  0  0  0  0  0  0  0
  -33.2079   27.2720  -20.9229 C   0  0  0  0  0  0  0  0  0  0  0  0
  -32.4272   25.8190  -20.9059 C   0  0  0  0  0  0  0  0  0  0  0  0
  -33.1074   29.4957  -22.0033 C   0  0  0  0  0  0  0  0  0  0  0  0
  -32.1437   30.4508  -22.7260 C   0  0  0  0  0  0  0  0  0  0  0  0
  -31.9689   28.6295  -24.2105 C   0  0  0  0  0  0  0  0  0  0  0  0
  -32.0191   27.5715  -23.0938 C   0  0  0  0  0  0  0  0  0  0  0  0
  1 17  1  0  0  0  0
  2  5  4  0  0  0  0
  5  7  4  0  0  0  0
  4  7  1  0  0  0  0
  7  9  4  0  0  0  0
  9 10  4  0  0  0  0
  2 11  4  0  0  0  0
 10 11  4  0  0  0  0
 11 12  1  0  0  0  0
  1 12  1  0  0  0  0
  3 13  4  0  0  0  0
  6 13  4  0  0  0  0
 12 13  1  0  0  0  0
  1 14  1  0  0  0  0
 14 15  1  0  0  0  0
  8 15  1  0  0  0  0
  8 16  1  0  0  0  0
 16 17  1  0  0  0  0
M  END
$$$$
