7FL9
  PyMOL2.5          3D                             0

 15 16  0  0  0  0  0  0  0  0999 V2000
   56.6306   27.8344  -10.2300 N   0  0  0  0  0  0  0  0  0  0  0  0
   55.5834   26.0683  -11.7310 C   0  0  0  0  0  0  0  0  0  0  0  0
   54.3950   26.9515   -9.7684 O   0  0  0  0  0  0  0  0  0  0  0  0
   57.6111   26.9837   -9.6525 C   0  0  0  0  0  0  0  0  0  0  0  0
   54.8103   28.3262  -11.6874 O   0  0  0  0  0  0  0  0  0  0  0  0
   57.3572   25.6190   -9.5449 C   0  0  0  0  0  0  0  0  0  0  0  0
   60.9428   27.1797   -8.2750 O   0  0  0  0  0  0  0  0  0  0  0  0
   58.2816   24.7600   -8.9932 C   0  0  0  0  0  0  0  0  0  0  0  0
   60.3579   24.4219   -8.0246 O   0  0  0  0  0  0  0  0  0  0  0  0
   59.4740   25.2857   -8.5529 C   0  0  0  0  0  0  0  0  0  0  0  0
   59.7473   26.6594   -8.6615 C   0  0  0  0  0  0  0  0  0  0  0  0
   58.8134   27.5242   -9.2047 C   0  0  0  0  0  0  0  0  0  0  0  0
   61.9297   26.1673   -8.1934 C   0  0  0  0  0  0  0  0  0  0  0  0
   61.4100   25.0301   -7.3495 C   0  0  0  0  0  0  0  0  0  0  0  0
   55.1938   27.3541  -10.8038 S   0  0  0  0  0  0  0  0  0  0  0  0
  1  4  1  0  0  0  0
  4  6  4  0  0  0  0
  4 12  4  0  0  0  0
  5 15  2  0  0  0  0
  6  8  4  0  0  0  0
  8 10  4  0  0  0  0
  9 10  1  0  0  0  0
  7 11  1  0  0  0  0
 10 11  4  0  0  0  0
 11 12  4  0  0  0  0
  7 13  1  0  0  0  0
 13 14  1  0  0  0  0
  9 14  1  0  0  0  0
  1 15  1  0  0  0  0
  2 15  1  0  0  0  0
  3 15  2  0  0  0  0
M  END
$$$$
