7FLE
  PyMOL2.5          3D                             0

 16 17  0  0  0  0  0  0  0  0999 V2000
   34.7675   16.5170   -5.3976 N   0  3  0  0  0  0  0  0  0  0  0  0
   35.8477   15.4556   -5.3699 C   0  0  0  0  0  0  0  0  0  0  0  0
   37.9738   18.4878   -7.2680 O   0  0  0  0  0  0  0  0  0  0  0  0
   33.9916   16.4325   -4.1101 C   0  0  0  0  0  0  0  0  0  0  0  0
   35.9314   19.5933   -7.1763 N   0  0  0  0  0  0  0  0  0  0  0  0
   33.5544   20.6616   -7.2677 S   0  5  0  0  0  0  0  0  0  0  0  0
   35.3366   17.9122   -5.5186 C   0  0  0  0  0  0  0  0  0  0  0  0
   35.6641   21.9622   -7.3847 N   0  0  0  0  0  0  0  0  0  0  0  0
   35.2699   18.3441   -6.9920 C   0  0  0  0  0  0  0  0  0  0  0  0
   37.3473   19.5959   -7.2454 C   0  0  0  0  0  0  0  0  0  0  0  0
   37.8151   20.9558   -7.3571 C   0  0  0  0  0  0  0  0  0  0  0  0
   36.9831   22.0312   -7.4281 C   0  0  0  0  0  0  0  0  0  0  0  0
   37.6743   23.2796   -7.5139 C   0  0  0  0  0  0  0  0  0  0  0  0
   38.9657   23.1088   -7.4916 C   0  0  0  0  0  0  0  0  0  0  0  0
   35.1881   20.7762   -7.2611 C   0  0  0  0  0  0  0  0  0  0  0  0
   39.3345   21.5178   -7.3720 S   0  0  0  0  0  0  0  0  0  0  0  0
  1  2  1  0  0  0  0
  1  4  1  0  0  0  0
  5  9  1  0  0  0  0
  5 10  4  0  0  0  0
  5 15  4  0  0  0  0
  1  7  1  0  0  0  0
  8 12  4  0  0  0  0
  8 15  4  0  0  0  0
  7  9  1  0  0  0  0
  3 10  2  0  0  0  0
 10 11  4  0  0  0  0
 11 12  4  0  0  0  0
 11 16  4  0  0  0  0
 12 13  4  0  0  0  0
 13 14  4  0  0  0  0
 14 16  4  0  0  0  0
  6 15  1  0  0  0  0
M  END
$$$$
