7FLJ
  PyMOL2.5          3D                             0

 16 17  0  0  0  0  0  0  0  0999 V2000
    7.6380    2.7295   -4.3052 N   0  0  0  0  0  0  0  0  0  0  0  0
    7.6376    1.3159   -2.3919 C   0  0  0  0  0  0  0  0  0  0  0  0
    8.5427   -2.9154   -5.9375 O   0  0  0  0  0  0  0  0  0  0  0  0
    7.9588    0.2314   -3.1689 C   0  0  0  0  0  0  0  0  0  0  0  0
    8.1104    1.8642   -6.4897 N   0  0  0  0  0  0  0  0  0  0  0  0
    8.1481    0.4045   -4.5402 C   0  0  0  0  0  0  0  0  0  0  0  0
    8.1816   -1.9411   -5.1055 N   0  3  0  0  0  0  0  0  0  0  0  0
    7.9522    1.6972   -5.0823 C   0  0  0  0  0  0  0  0  0  0  0  0
    9.4726   -0.4829   -6.3424 N   0  0  0  0  0  0  0  0  0  0  0  0
    7.4987    2.5443   -3.0062 C   0  0  0  0  0  0  0  0  0  0  0  0
    8.4765    3.2383   -6.9131 C   0  0  0  0  0  0  0  0  0  0  0  0
    8.8624    3.3389   -8.3874 C   0  0  0  0  0  0  0  0  0  0  0  0
    7.7653    2.7342   -9.2518 C   0  0  0  0  0  0  0  0  0  0  0  0
    7.4122    1.3234   -8.7966 C   0  0  0  0  0  0  0  0  0  0  0  0
    7.0140    1.3346   -7.3267 C   0  0  0  0  0  0  0  0  0  0  0  0
    8.6232   -0.7042   -5.3823 C   0  0  0  0  0  0  0  0  0  0  0  0
  2  4  4  0  0  0  0
  4  6  4  0  0  0  0
  5  8  1  0  0  0  0
  5 11  1  0  0  0  0
  5 15  1  0  0  0  0
  6 16  1  0  0  0  0
  3  7  1  0  0  0  0
  7 16  4  0  0  0  0
  1  8  4  0  0  0  0
  6  8  4  0  0  0  0
  9 16  4  0  0  0  0
  1 10  4  0  0  0  0
  2 10  4  0  0  0  0
 11 12  1  0  0  0  0
 12 13  1  0  0  0  0
 13 14  1  0  0  0  0
 14 15  1  0  0  0  0
M  END
$$$$
