7FLM
  PyMOL2.5          3D                             0

 28 28  0  0  0  0  0  0  0  0999 V2000
   29.1792  -10.6635   70.2892 N   0  0  0  0  0  0  0  0  0  0  0  0
   30.8403  -10.2523   68.5613 C   0  0  0  0  0  0  0  0  0  0  0  0
   27.2956   -9.1659   70.2515 O   0  0  0  0  0  0  0  0  0  0  0  0
   30.2974   -9.8178   69.9068 C   0  0  0  0  0  0  0  0  0  0  0  0
   26.9455  -11.4850   70.2408 O   0  0  0  0  0  0  0  0  0  0  0  0
   27.6881  -10.3879   68.1952 C   0  0  0  0  0  0  0  0  0  0  0  0
   28.2052  -12.5712   68.1064 O   0  0  0  0  0  0  0  0  0  0  0  0
   27.4315   -9.2022   67.5410 C   0  0  0  0  0  0  0  0  0  0  0  0
   27.4815   -9.1317   66.1772 C   0  0  0  0  0  0  0  0  0  0  0  0
   27.7719  -10.2409   65.4329 C   0  0  0  0  0  0  0  0  0  0  0  0
   28.0215  -11.4385   66.0422 C   0  0  0  0  0  0  0  0  0  0  0  0
   27.9742  -11.4811   67.4034 C   0  0  0  0  0  0  0  0  0  0  0  0
   28.5227  -13.7486   67.4659 C   0  0  0  0  0  0  0  0  0  0  0  0
   27.6634  -10.4092   69.8396 S   0  0  0  0  0  0  0  0  0  0  0  0
   32.7781   -7.1742   79.9029 N   0  0  0  0  0  0  0  0  0  0  0  0
   33.1980   -8.5521   81.8678 C   0  0  0  0  0  0  0  0  0  0  0  0
   32.0436   -5.0221   79.0882 O   0  0  0  0  0  0  0  0  0  0  0  0
   33.8078   -7.8496   80.6680 C   0  0  0  0  0  0  0  0  0  0  0  0
   33.0231   -6.5258   77.6796 O   0  0  0  0  0  0  0  0  0  0  0  0
   34.4416   -5.4265   79.3791 C   0  0  0  0  0  0  0  0  0  0  0  0
   33.6805   -4.2931   81.2285 O   0  0  0  0  0  0  0  0  0  0  0  0
   35.4971   -5.7854   78.6458 C   0  0  0  0  0  0  0  0  0  0  0  0
   36.8021   -5.4357   78.9240 C   0  0  0  0  0  0  0  0  0  0  0  0
   37.0824   -4.6617   80.0327 C   0  0  0  0  0  0  0  0  0  0  0  0
   36.0430   -4.2550   80.8338 C   0  0  0  0  0  0  0  0  0  0  0  0
   34.7385   -4.6388   80.5004 C   0  0  0  0  0  0  0  0  0  0  0  0
   33.8025   -3.5221   82.3988 C   0  0  0  0  0  0  0  0  0  0  0  0
   32.9771   -5.9744   78.9019 S   0  0  0  0  0  0  0  0  0  0  0  0
  1  4  1  0  0  0  0
  2  4  1  0  0  0  0
  5 14  2  0  0  0  0
  6 14  1  0  0  0  0
  6  8  4  0  0  0  0
  8  9  4  0  0  0  0
  9 10  4  0  0  0  0
 10 11  4  0  0  0  0
  6 12  4  0  0  0  0
  7 12  1  0  0  0  0
 11 12  4  0  0  0  0
  7 13  1  0  0  0  0
  1 14  1  0  0  0  0
  3 14  2  0  0  0  0
 15 18  1  0  0  0  0
 16 18  1  0  0  0  0
 19 28  2  0  0  0  0
 20 28  1  0  0  0  0
 20 22  4  0  0  0  0
 22 23  4  0  0  0  0
 23 24  4  0  0  0  0
 24 25  4  0  0  0  0
 20 26  4  0  0  0  0
 21 26  1  0  0  0  0
 25 26  4  0  0  0  0
 21 27  1  0  0  0  0
 15 28  1  0  0  0  0
 17 28  2  0  0  0  0
M  END
$$$$
