7FLQ
  PyMOL2.5          3D                             0

 13 13  0  0  0  0  0  0  0  0999 V2000
   60.6617   33.7432  -34.6514 N   0  3  0  0  0  0  0  0  0  0  0  0
   57.9090   28.9982  -39.4102 C   0  0  0  0  0  0  0  0  0  0  0  0
   57.5838   30.2353  -38.7946 O   0  0  0  0  0  0  0  0  0  0  0  0
   58.5979   30.9691  -38.2393 C   0  0  0  0  0  0  0  0  0  0  0  0
   63.9445   34.3806  -34.3550 O   0  0  0  0  0  0  0  0  0  0  0  0
   59.9557   30.6644  -38.1830 C   0  0  0  0  0  0  0  0  0  0  0  0
   60.8142   31.4962  -37.4884 C   0  0  0  0  0  0  0  0  0  0  0  0
   60.3541   32.6453  -36.8669 C   0  0  0  0  0  0  0  0  0  0  0  0
   59.0081   32.9634  -36.9887 C   0  0  0  0  0  0  0  0  0  0  0  0
   58.1306   32.1297  -37.6561 C   0  0  0  0  0  0  0  0  0  0  0  0
   61.2636   33.5018  -36.0065 C   0  0  0  0  0  0  0  0  0  0  0  0
   62.6931   32.9686  -35.8856 C   0  0  0  0  0  0  0  0  0  0  0  0
   63.7587   34.0302  -35.7090 C   0  0  0  0  0  0  0  0  0  0  0  0
  2  3  1  0  0  0  0
  3  4  1  0  0  0  0
  4  6  4  0  0  0  0
  4 10  4  0  0  0  0
  6  7  4  0  0  0  0
  7  8  4  0  0  0  0
  8  9  4  0  0  0  0
  9 10  4  0  0  0  0
  1 11  1  0  0  0  0
  8 11  1  0  0  0  0
 11 12  1  0  0  0  0
 12 13  1  0  0  0  0
  5 13  1  0  0  0  0
M  END
$$$$
