7FLR
  PyMOL2.5          3D                             0

 14 15  0  0  0  0  0  0  0  0999 V2000
   35.1525  -10.7826    0.8946 N   0  3  0  0  0  0  0  0  0  0  0  0
   36.3177  -10.3192    1.7487 C   0  0  0  0  0  0  0  0  0  0  0  0
   35.6390  -11.8130   -0.0623 C   0  0  0  0  0  0  0  0  0  0  0  0
   37.1086   -9.6183   -0.7632 N   0  0  0  0  0  0  0  0  0  0  0  0
   34.7251   -9.5944    0.0815 C   0  0  0  0  0  0  0  0  0  0  0  0
   33.8148   -9.9408   -1.0936 C   0  0  0  0  0  0  0  0  0  0  0  0
   33.3647   -8.5692   -1.3674 C   0  0  0  0  0  0  0  0  0  0  0  0
   33.0425   -7.9616   -2.5193 C   0  0  0  0  0  0  0  0  0  0  0  0
   32.6732   -6.6200   -2.4650 C   0  0  0  0  0  0  0  0  0  0  0  0
   32.6349   -5.9302   -1.3022 C   0  0  0  0  0  0  0  0  0  0  0  0
   32.9545   -6.5824   -0.1497 C   0  0  0  0  0  0  0  0  0  0  0  0
   33.3193   -7.8779   -0.2047 C   0  0  0  0  0  0  0  0  0  0  0  0
   33.7712   -8.7492    0.8840 C   0  0  0  0  0  0  0  0  0  0  0  0
   35.9943   -8.7744   -0.3652 C   0  0  0  0  0  0  0  0  0  0  0  0
  1  2  1  0  0  0  0
  1  3  1  0  0  0  0
  4 14  1  0  0  0  0
  1  5  1  0  0  0  0
  5 13  1  0  0  0  0
  5 14  1  0  0  0  0
  5  6  1  0  0  0  0
  6  7  1  0  0  0  0
  7  8  4  0  0  0  0
  8  9  4  0  0  0  0
  9 10  4  0  0  0  0
 10 11  4  0  0  0  0
 11 12  4  0  0  0  0
  7 12  4  0  0  0  0
 12 13  1  0  0  0  0
M  END
$$$$
