7FLS
  PyMOL2.5          3D                             0

 12 12  0  0  0  0  0  0  0  0999 V2000
   92.6509   22.7850   31.6712 N   0  3  0  0  0  0  0  0  0  0  0  0
   92.8768   23.5235   33.9918 C   0  0  0  0  0  0  0  0  0  0  0  0
   95.6686   22.6678   33.8108 O   0  0  0  0  0  0  0  0  0  0  0  0
   93.4020   22.5455   32.9465 C   0  0  0  0  0  0  0  0  0  0  0  0
   94.4163   17.7681   32.5834 O   0  0  0  0  0  0  0  0  0  0  0  0
   94.8720   22.8273   32.6481 C   0  0  0  0  0  0  0  0  0  0  0  0
   93.2743   21.1319   33.4410 C   0  0  0  0  0  0  0  0  0  0  0  0
   92.5470   20.8536   34.5910 C   0  0  0  0  0  0  0  0  0  0  0  0
   92.4339   19.5557   35.0591 C   0  0  0  0  0  0  0  0  0  0  0  0
   93.0507   18.5123   34.3897 C   0  0  0  0  0  0  0  0  0  0  0  0
   93.7808   18.7780   33.2424 C   0  0  0  0  0  0  0  0  0  0  0  0
   93.8852   20.0773   32.7714 C   0  0  0  0  0  0  0  0  0  0  0  0
  1  4  1  0  0  0  0
  2  4  1  0  0  0  0
  4  6  1  0  0  0  0
  4  7  1  0  0  0  0
  3  6  1  0  0  0  0
  7  8  4  0  0  0  0
  8  9  4  0  0  0  0
  9 10  4  0  0  0  0
  5 11  1  0  0  0  0
 10 11  4  0  0  0  0
 11 12  4  0  0  0  0
  7 12  4  0  0  0  0
M  END
$$$$
