7FLT
  PyMOL2.5          3D                             0

 24 24  0  0  0  0  0  0  0  0999 V2000
  -26.7147   43.1723   29.9912 N   0  3  0  0  0  0  0  0  0  0  0  0
  -29.1927   42.7241   30.1674 C   0  0  0  0  0  0  0  0  0  0  0  0
  -28.1515   43.0069   23.8529 O   0  0  0  0  0  0  0  0  0  0  0  0
  -27.9579   42.5271   29.3290 C   0  0  0  0  0  0  0  0  0  0  0  0
  -28.1388   42.8742   27.9266 C   0  0  0  0  0  0  0  0  0  0  0  0
  -28.0182   44.0340   27.3228 C   0  0  0  0  0  0  0  0  0  0  0  0
  -28.0804   44.0876   25.9631 C   0  0  0  0  0  0  0  0  0  0  0  0
  -28.2734   42.8577   25.1383 C   0  0  0  0  0  0  0  0  0  0  0  0
  -28.4206   41.6946   25.8071 C   0  0  0  0  0  0  0  0  0  0  0  0
  -28.3580   41.6817   27.1649 C   0  0  0  0  0  0  0  0  0  0  0  0
  -27.8229   44.2427   23.3553 C   0  0  0  0  0  0  0  0  0  0  0  0
  -28.6019   40.6543   25.2094 F   0  0  0  0  0  0  0  0  0  0  0  0
  -21.5765   47.5285    2.9018 N   0  3  0  0  0  0  0  0  0  0  0  0
  -23.2020   46.4663    1.4178 C   0  0  0  0  0  0  0  0  0  0  0  0
  -25.2872   44.6574    7.2041 O   0  0  0  0  0  0  0  0  0  0  0  0
  -23.0293   47.2317    2.7110 C   0  0  0  0  0  0  0  0  0  0  0  0
  -23.5961   46.5112    3.9090 C   0  0  0  0  0  0  0  0  0  0  0  0
  -23.1496   45.2550    4.2802 C   0  0  0  0  0  0  0  0  0  0  0  0
  -23.6825   44.6027    5.3759 C   0  0  0  0  0  0  0  0  0  0  0  0
  -24.6782   45.2090    6.1207 C   0  0  0  0  0  0  0  0  0  0  0  0
  -25.1119   46.4567    5.7413 C   0  0  0  0  0  0  0  0  0  0  0  0
  -24.5895   47.1095    4.6598 C   0  0  0  0  0  0  0  0  0  0  0  0
  -24.8087   43.4125    7.6609 C   0  0  0  0  0  0  0  0  0  0  0  0
  -26.0787   47.0442    6.4584 F   0  0  0  0  0  0  0  0  0  0  0  0
  1  4  1  0  0  0  0
  2  4  1  0  0  0  0
  4  5  1  0  0  0  0
  5  6  4  0  0  0  0
  6  7  4  0  0  0  0
  3  8  1  0  0  0  0
  7  8  4  0  0  0  0
  8  9  4  0  0  0  0
  9 12  1  0  0  0  0
  5 10  4  0  0  0  0
  9 10  4  0  0  0  0
  3 11  1  0  0  0  0
 13 16  1  0  0  0  0
 14 16  1  0  0  0  0
 16 17  1  0  0  0  0
 17 18  4  0  0  0  0
 18 19  4  0  0  0  0
 15 20  1  0  0  0  0
 19 20  4  0  0  0  0
 20 21  4  0  0  0  0
 21 24  1  0  0  0  0
 17 22  4  0  0  0  0
 21 22  4  0  0  0  0
 15 23  1  0  0  0  0
M  END
$$$$
