7FM2
  PyMOL2.5          3D                             0

 13 14  0  0  0  0  0  0  0  0999 V2000
   48.4202   32.5193  -40.8752 N   0  0  0  0  0  0  0  0  0  0  0  0
   46.9678   38.0224  -40.7049 C   0  0  0  0  0  0  0  0  0  0  0  0
   46.9620   36.5525  -40.3586 C   0  0  0  0  0  0  0  0  0  0  0  0
   46.4144   35.8280  -41.6126 N   0  3  0  0  0  0  0  0  0  0  0  0
   48.3856   36.0682  -39.9897 C   0  0  0  0  0  0  0  0  0  0  0  0
   48.4588   34.6053  -40.0593 C   0  0  0  0  0  0  0  0  0  0  0  0
   48.2231   33.8466  -41.1596 C   0  0  0  0  0  0  0  0  0  0  0  0
   48.7875   32.4241  -39.5600 C   0  0  0  0  0  0  0  0  0  0  0  0
   48.8165   33.7178  -39.0221 C   0  0  0  0  0  0  0  0  0  0  0  0
   49.1666   33.8885  -37.6989 C   0  0  0  0  0  0  0  0  0  0  0  0
   49.4727   32.7938  -36.9639 C   0  0  0  0  0  0  0  0  0  0  0  0
   49.4426   31.5108  -37.5173 C   0  0  0  0  0  0  0  0  0  0  0  0
   49.0999   31.2954  -38.8157 C   0  0  0  0  0  0  0  0  0  0  0  0
  2  3  1  0  0  0  0
  3  5  1  0  0  0  0
  3  4  1  0  0  0  0
  5  6  1  0  0  0  0
  1  7  4  0  0  0  0
  6  7  4  0  0  0  0
  1  8  4  0  0  0  0
  8  9  4  0  0  0  0
  8 13  4  0  0  0  0
  6  9  4  0  0  0  0
  9 10  4  0  0  0  0
 10 11  4  0  0  0  0
 11 12  4  0  0  0  0
 12 13  4  0  0  0  0
M  END
$$$$
