7FM4
  PyMOL2.5          3D                             0

 16 17  0  0  0  0  0  0  0  0999 V2000
   34.5007   45.0801   51.7279 N   0  0  0  0  0  0  0  0  0  0  0  0
   32.4764   44.5911   52.6133 C   0  0  0  0  0  0  0  0  0  0  0  0
   33.6364   44.0961   51.9653 O   0  0  0  0  0  0  0  0  0  0  0  0
   35.6470   44.7986   51.1296 C   0  0  0  0  0  0  0  0  0  0  0  0
   39.5621   43.9890   50.5004 O   0  0  0  0  0  0  0  0  0  0  0  0
   36.7360   45.7642   50.7945 C   0  0  0  0  0  0  0  0  0  0  0  0
   38.9299   43.2561   52.6167 O   0  0  0  0  0  0  0  0  0  0  0  0
   37.8951   45.4075   51.7125 C   0  0  0  0  0  0  0  0  0  0  0  0
   37.2854   42.9964   50.7960 C   0  0  0  0  0  0  0  0  0  0  0  0
   35.9621   43.4028   50.7183 C   0  0  0  0  0  0  0  0  0  0  0  0
   34.9908   42.5505   50.2215 C   0  0  0  0  0  0  0  0  0  0  0  0
   35.3625   41.2922   49.7833 C   0  0  0  0  0  0  0  0  0  0  0  0
   36.6765   40.8530   49.8355 C   0  0  0  0  0  0  0  0  0  0  0  0
   37.6117   41.7189   50.3413 C   0  0  0  0  0  0  0  0  0  0  0  0
   34.4416   40.5056   49.2832 F   0  0  0  0  0  0  0  0  0  0  0  0
   38.5385   43.8582   51.4198 S   0  0  0  0  0  0  0  0  0  0  0  0
  1  3  1  0  0  0  0
  2  3  1  0  0  0  0
  1  4  1  0  0  0  0
  4  6  1  0  0  0  0
  4 10  1  0  0  0  0
  5 16  2  0  0  0  0
  6  8  1  0  0  0  0
  8 16  1  0  0  0  0
  9 16  1  0  0  0  0
  9 10  4  0  0  0  0
 10 11  4  0  0  0  0
 11 12  4  0  0  0  0
 12 13  4  0  0  0  0
 12 15  1  0  0  0  0
 13 14  4  0  0  0  0
  9 14  4  0  0  0  0
  7 16  2  0  0  0  0
M  END
$$$$
