7FM9
  PyMOL2.5          3D                             0

 48 48  0  0  0  0  0  0  0  0999 V2000
   48.4575   30.1114   17.0312 N   0  3  0  0  0  0  0  0  0  0  0  0
   51.7834   31.9722   13.2028 C   0  0  0  0  0  0  0  0  0  0  0  0
   50.6031   31.7499   13.8093 O   0  0  0  0  0  0  0  0  0  0  0  0
   45.3614   32.6412   11.5066 Cl  0  0  0  0  0  0  0  0  0  0  0  0
   49.4698   32.0617   13.2289 C   0  0  0  0  0  0  0  0  0  0  0  0
   49.3445   32.4868   11.9437 C   0  0  0  0  0  0  0  0  0  0  0  0
   48.1447   32.6043   11.4015 C   0  0  0  0  0  0  0  0  0  0  0  0
   47.0388   32.3354   12.0647 C   0  0  0  0  0  0  0  0  0  0  0  0
   47.1556   31.9423   13.2983 C   0  0  0  0  0  0  0  0  0  0  0  0
   48.2780   31.8254   13.9107 C   0  0  0  0  0  0  0  0  0  0  0  0
   48.0947   31.5321   15.3034 C   0  0  0  0  0  0  0  0  0  0  0  0
   48.9293   30.4291   15.6405 C   0  0  0  0  0  0  0  0  0  0  0  0
   21.0135   10.2839    3.3608 N   0  3  0  0  0  0  0  0  0  0  0  0
   16.6612   11.4907    1.8608 C   0  0  0  0  0  0  0  0  0  0  0  0
   18.0118   11.8094    1.6586 O   0  0  0  0  0  0  0  0  0  0  0  0
   19.9025   16.3536    4.2366 Cl  0  0  0  0  0  0  0  0  0  0  0  0
   18.4214   12.9434    2.2120 C   0  0  0  0  0  0  0  0  0  0  0  0
   17.5581   13.8606    2.7272 C   0  0  0  0  0  0  0  0  0  0  0  0
   18.0535   14.9029    3.3986 C   0  0  0  0  0  0  0  0  0  0  0  0
   19.3879   15.0275    3.5254 C   0  0  0  0  0  0  0  0  0  0  0  0
   20.2713   14.1449    3.0191 C   0  0  0  0  0  0  0  0  0  0  0  0
   19.7613   13.0671    2.3206 C   0  0  0  0  0  0  0  0  0  0  0  0
   20.6307   12.0851    1.6477 C   0  0  0  0  0  0  0  0  0  0  0  0
   21.5866   11.5491    2.7144 C   0  0  0  0  0  0  0  0  0  0  0  0
   10.4145   14.2133   -3.3500 N   0  3  0  0  0  0  0  0  0  0  0  0
   11.4879   20.0276   -5.6854 C   0  0  0  0  0  0  0  0  0  0  0  0
   11.2348   18.9174   -4.8925 O   0  0  0  0  0  0  0  0  0  0  0  0
    7.1172   19.2468   -1.0708 Cl  0  0  0  0  0  0  0  0  0  0  0  0
   10.2479   19.0668   -4.0473 C   0  0  0  0  0  0  0  0  0  0  0  0
    9.5234   20.2368   -3.9351 C   0  0  0  0  0  0  0  0  0  0  0  0
    8.5488   20.3020   -2.9825 C   0  0  0  0  0  0  0  0  0  0  0  0
    8.3223   19.1925   -2.1861 C   0  0  0  0  0  0  0  0  0  0  0  0
    9.0389   18.0285   -2.2980 C   0  0  0  0  0  0  0  0  0  0  0  0
   10.0189   17.9681   -3.2497 C   0  0  0  0  0  0  0  0  0  0  0  0
   10.8374   16.7497   -3.3792 C   0  0  0  0  0  0  0  0  0  0  0  0
    9.8323   15.6195   -3.6424 C   0  0  0  0  0  0  0  0  0  0  0  0
   21.9988   28.7844    0.7678 N   0  3  0  0  0  0  0  0  0  0  0  0
   26.5351   28.7729   -0.9572 C   0  0  0  0  0  0  0  0  0  0  0  0
   26.0581   28.3732    0.2576 O   0  0  0  0  0  0  0  0  0  0  0  0
   25.9123   23.0126    0.4935 Cl  0  0  0  0  0  0  0  0  0  0  0  0
   25.7379   27.0919    0.2887 C   0  0  0  0  0  0  0  0  0  0  0  0
   26.6704   26.2808   -0.1383 C   0  0  0  0  0  0  0  0  0  0  0  0
   26.5909   25.0361   -0.1226 C   0  0  0  0  0  0  0  0  0  0  0  0
   25.5810   24.4773    0.3247 C   0  0  0  0  0  0  0  0  0  0  0  0
   24.4884   25.1153    0.7547 C   0  0  0  0  0  0  0  0  0  0  0  0
   24.5651   26.4821    0.7400 C   0  0  0  0  0  0  0  0  0  0  0  0
   23.4252   27.0683    1.1663 C   0  0  0  0  0  0  0  0  0  0  0  0
   23.3920   28.3958    0.5937 C   0  0  0  0  0  0  0  0  0  0  0  0
  2  3  1  0  0  0  0
  3  5  1  0  0  0  0
  5  6  4  0  0  0  0
  5 10  4  0  0  0  0
  6  7  4  0  0  0  0
  4  8  1  0  0  0  0
  7  8  4  0  0  0  0
  8  9  4  0  0  0  0
  9 10  4  0  0  0  0
 10 11  1  0  0  0  0
 11 12  1  0  0  0  0
  1 12  1  0  0  0  0
 14 15  1  0  0  0  0
 15 17  1  0  0  0  0
 17 18  4  0  0  0  0
 17 22  4  0  0  0  0
 18 19  4  0  0  0  0
 16 20  1  0  0  0  0
 19 20  4  0  0  0  0
 20 21  4  0  0  0  0
 21 22  4  0  0  0  0
 22 23  1  0  0  0  0
 23 24  1  0  0  0  0
 13 24  1  0  0  0  0
 26 27  1  0  0  0  0
 27 29  1  0  0  0  0
 29 30  4  0  0  0  0
 29 34  4  0  0  0  0
 30 31  4  0  0  0  0
 28 32  1  0  0  0  0
 31 32  4  0  0  0  0
 32 33  4  0  0  0  0
 33 34  4  0  0  0  0
 34 35  1  0  0  0  0
 35 36  1  0  0  0  0
 25 36  1  0  0  0  0
 38 39  1  0  0  0  0
 39 41  1  0  0  0  0
 41 42  4  0  0  0  0
 41 46  4  0  0  0  0
 42 43  4  0  0  0  0
 40 44  1  0  0  0  0
 43 44  4  0  0  0  0
 44 45  4  0  0  0  0
 45 46  4  0  0  0  0
 46 47  1  0  0  0  0
 47 48  1  0  0  0  0
 37 48  1  0  0  0  0
M  END
$$$$
