7FME
  PyMOL2.5          3D                             0

 15 15  0  0  0  0  0  0  0  0999 V2000
   94.3216  -19.0436   23.0392 N   0  3  0  0  0  0  0  0  0  0  0  0
   92.5851  -21.5501   16.3030 C   0  0  0  0  0  0  0  0  0  0  0  0
   93.4737  -20.8008   17.0818 O   0  0  0  0  0  0  0  0  0  0  0  0
   93.0095  -20.5578   18.3784 C   0  0  0  0  0  0  0  0  0  0  0  0
   93.7799  -19.5655   20.3075 O   0  0  0  0  0  0  0  0  0  0  0  0
   94.1922  -19.8159   18.9750 C   0  0  0  0  0  0  0  0  0  0  0  0
   94.0292  -18.8373   24.1828 O   0  0  0  0  0  0  0  0  0  0  0  0
   94.0630  -18.3049   20.7312 C   0  0  0  0  0  0  0  0  0  0  0  0
   94.7452  -20.0647   22.6172 O   0  5  0  0  0  0  0  0  0  0  0  0
   94.1768  -17.3160   19.8107 C   0  0  0  0  0  0  0  0  0  0  0  0
   94.3717  -16.0753   20.2852 C   0  0  0  0  0  0  0  0  0  0  0  0
   94.4203  -15.7842   21.6075 C   0  0  0  0  0  0  0  0  0  0  0  0
   94.3399  -16.7166   22.5679 C   0  0  0  0  0  0  0  0  0  0  0  0
   94.1855  -17.9923   22.0960 C   0  0  0  0  0  0  0  0  0  0  0  0
   94.5210  -13.9457   22.1100 Br  0  0  0  0  0  0  0  0  0  0  0  0
  1  7  4  0  0  0  0
  2  3  1  0  0  0  0
  3  4  1  0  0  0  0
  4  6  1  0  0  0  0
  5  6  1  0  0  0  0
  5  8  1  0  0  0  0
  1  9  4  0  0  0  0
  8 10  4  0  0  0  0
 10 11  4  0  0  0  0
 11 12  4  0  0  0  0
 12 15  1  0  0  0  0
 12 13  4  0  0  0  0
 13 14  4  0  0  0  0
  1 14  1  0  0  0  0
  8 14  4  0  0  0  0
M  END
$$$$
