7FMG
  PyMOL2.5          3D                             0

 16 17  0  0  0  0  0  0  0  0999 V2000
   30.0262   30.6808  -23.2663 N   0  0  0  0  0  0  0  0  0  0  0  0
   31.2644   31.3156  -21.2831 C   0  0  0  0  0  0  0  0  0  0  0  0
   28.1808   30.2508  -18.9785 O   0  0  0  0  0  0  0  0  0  0  0  0
   30.2915   31.0737  -20.4604 C   0  0  0  0  0  0  0  0  0  0  0  0
   27.0589   29.5599  -20.7208 N   0  0  0  0  0  0  0  0  0  0  0  0
   29.1674   30.6056  -21.0169 C   0  0  0  0  0  0  0  0  0  0  0  0
   29.0562   30.4478  -22.4191 C   0  0  0  0  0  0  0  0  0  0  0  0
   31.1224   31.0985  -22.7082 C   0  0  0  0  0  0  0  0  0  0  0  0
   28.0886   30.1358  -20.1369 C   0  0  0  0  0  0  0  0  0  0  0  0
   25.9192   29.0508  -19.9463 C   0  0  0  0  0  0  0  0  0  0  0  0
   25.7699   27.5756  -19.9584 C   0  0  0  0  0  0  0  0  0  0  0  0
   26.8722   26.8948  -19.3385 C   0  0  0  0  0  0  0  0  0  0  0  0
   26.8168   26.1971  -18.2747 C   0  0  0  0  0  0  0  0  0  0  0  0
   28.0093   25.6379  -17.9236 C   0  0  0  0  0  0  0  0  0  0  0  0
   28.9312   25.9740  -18.8064 C   0  0  0  0  0  0  0  0  0  0  0  0
   28.3922   26.9214  -20.0146 S   0  0  0  0  0  0  0  0  0  0  0  0
  2  4  4  0  0  0  0
  4  6  4  0  0  0  0
  5  9  1  0  0  0  0
  5 10  1  0  0  0  0
  1  7  4  0  0  0  0
  6  7  4  0  0  0  0
  1  8  4  0  0  0  0
  2  8  4  0  0  0  0
  3  9  2  0  0  0  0
  6  9  1  0  0  0  0
 10 11  1  0  0  0  0
 11 12  1  0  0  0  0
 12 13  4  0  0  0  0
 12 16  4  0  0  0  0
 13 14  4  0  0  0  0
 14 15  4  0  0  0  0
 15 16  4  0  0  0  0
M  END
$$$$
