7FMH
  PyMOL2.5          3D                             0

 16 16  0  0  0  0  0  0  0  0999 V2000
    0.7788  -19.3126  -45.8734 N   0  0  0  0  0  0  0  0  0  0  0  0
   -0.0939  -18.7382  -43.6545 C   0  0  0  0  0  0  0  0  0  0  0  0
    3.2178  -20.7116  -50.6520 O   0  0  0  0  0  0  0  0  0  0  0  0
    0.5324  -19.6437  -44.6303 C   0  0  0  0  0  0  0  0  0  0  0  0
    1.1199  -21.4609  -51.0575 N   0  0  0  0  0  0  0  0  0  0  0  0
    1.3331  -20.4153  -46.5527 C   0  0  0  0  0  0  0  0  0  0  0  0
   -3.2059  -23.4653  -51.3472 N   0  0  0  0  0  0  0  0  0  0  0  0
    1.5054  -21.5309  -45.7825 C   0  0  0  0  0  0  0  0  0  0  0  0
    1.5717  -20.3227  -47.9830 C   0  0  0  0  0  0  0  0  0  0  0  0
    1.9577  -21.3501  -48.7377 C   0  0  0  0  0  0  0  0  0  0  0  0
    2.1683  -21.1413  -50.1909 C   0  0  0  0  0  0  0  0  0  0  0  0
    1.2589  -21.2752  -52.5023 C   0  0  0  0  0  0  0  0  0  0  0  0
   -0.1542  -22.0045  -50.5763 C   0  0  0  0  0  0  0  0  0  0  0  0
   -0.6384  -23.0962  -51.5673 C   0  0  0  0  0  0  0  0  0  0  0  0
   -2.0677  -23.2979  -51.4372 C   0  0  0  0  0  0  0  0  0  0  0  0
    0.9672  -21.2771  -44.1908 S   0  0  0  0  0  0  0  0  0  0  0  0
  1  4  4  0  0  0  0
  2  4  1  0  0  0  0
  4 16  4  0  0  0  0
  5 11  1  0  0  0  0
  5 12  1  0  0  0  0
  5 13  1  0  0  0  0
  1  6  4  0  0  0  0
  7 15  3  0  0  0  0
  6  8  4  0  0  0  0
  8 16  4  0  0  0  0
  6  9  1  0  0  0  0
  9 10  1  0  0  0  0
 10 11  1  0  0  0  0
  3 11  2  0  0  0  0
 13 14  1  0  0  0  0
 14 15  1  0  0  0  0
M  END
$$$$
