7FMJ
  PyMOL2.5          3D                             0

 17 18  0  0  0  0  0  0  0  0999 V2000
   51.9935   49.7804  -29.0934 N   0  0  0  0  0  0  0  0  0  0  0  0
   49.8717   51.3704  -26.5734 C   0  0  0  0  0  0  0  0  0  0  0  0
   51.1975   53.8159  -21.3181 O   0  0  0  0  0  0  0  0  0  0  0  0
   50.2645   50.7236  -27.7404 C   0  0  0  0  0  0  0  0  0  0  0  0
   49.2102   53.5038  -22.0065 O   0  5  0  0  0  0  0  0  0  0  0  0
   51.6018   50.4381  -27.9315 C   0  0  0  0  0  0  0  0  0  0  0  0
   50.5554   50.5479  -30.5833 O   0  0  0  0  0  0  0  0  0  0  0  0
   52.5227   50.8092  -26.9685 C   0  0  0  0  0  0  0  0  0  0  0  0
   52.1000   51.4559  -25.8115 C   0  0  0  0  0  0  0  0  0  0  0  0
   50.7679   51.7404  -25.5999 C   0  0  0  0  0  0  0  0  0  0  0  0
   50.2603   52.4319  -24.4042 C   0  0  0  0  0  0  0  0  0  0  0  0
   50.9597   52.6885  -23.3389 C   0  0  0  0  0  0  0  0  0  0  0  0
   50.4112   53.4013  -22.1035 C   0  0  0  0  0  0  0  0  0  0  0  0
   53.0844   48.8389  -29.0993 C   0  0  0  0  0  0  0  0  0  0  0  0
   52.9419   48.1098  -30.4229 C   0  0  0  0  0  0  0  0  0  0  0  0
   52.1471   49.0235  -31.3050 C   0  0  0  0  0  0  0  0  0  0  0  0
   51.4427   49.8970  -30.3175 C   0  0  0  0  0  0  0  0  0  0  0  0
  2  4  4  0  0  0  0
  4  6  4  0  0  0  0
  1  6  1  0  0  0  0
  7 17  2  0  0  0  0
  6  8  4  0  0  0  0
  8  9  4  0  0  0  0
  2 10  4  0  0  0  0
  9 10  4  0  0  0  0
 10 11  1  0  0  0  0
 11 12  1  0  0  0  0
 12 13  1  0  0  0  0
  3 13  4  0  0  0  0
  5 13  4  0  0  0  0
  1 14  1  0  0  0  0
 14 15  1  0  0  0  0
 15 16  1  0  0  0  0
  1 17  1  0  0  0  0
 16 17  1  0  0  0  0
M  END
$$$$
