7FMK
  PyMOL2.5          3D                             0

 30 30  0  0  0  0  0  0  0  0999 V2000
   21.4559    9.8876    1.4489 N   0  3  0  0  0  0  0  0  0  0  0  0
   26.7235   12.9193   -0.7108 C   0  0  0  0  0  0  0  0  0  0  0  0
   24.3572   12.8502   -1.1456 O   0  0  0  0  0  0  0  0  0  0  0  0
   25.3327   12.6775   -0.1346 C   0  0  0  0  0  0  0  0  0  0  0  0
   22.2729   12.4136   -1.8187 O   0  0  0  0  0  0  0  0  0  0  0  0
   23.1345   12.3086   -0.9821 C   0  0  0  0  0  0  0  0  0  0  0  0
   22.9542   11.5602    0.3245 C   0  0  0  0  0  0  0  0  0  0  0  0
   22.0628   10.3256    0.1138 C   0  0  0  0  0  0  0  0  0  0  0  0
   20.6383    8.5801    1.3196 C   0  0  0  0  0  0  0  0  0  0  0  0
   19.5922    8.8683    0.3112 C   0  0  0  0  0  0  0  0  0  0  0  0
   18.3045    9.1894    0.7215 C   0  0  0  0  0  0  0  0  0  0  0  0
   17.3389    9.4822   -0.2241 C   0  0  0  0  0  0  0  0  0  0  0  0
   17.6607    9.4516   -1.5699 C   0  0  0  0  0  0  0  0  0  0  0  0
   18.9485    9.1241   -1.9772 C   0  0  0  0  0  0  0  0  0  0  0  0
   19.9182    8.8317   -1.0367 C   0  0  0  0  0  0  0  0  0  0  0  0
  -28.8691  -12.4666    4.4522 N   0  3  0  0  0  0  0  0  0  0  0  0
  -32.4604  -13.9643   10.6091 C   0  0  0  0  0  0  0  0  0  0  0  0
  -30.9478  -13.3775    8.8464 O   0  0  0  0  0  0  0  0  0  0  0  0
  -31.0567  -14.1111   10.0461 C   0  0  0  0  0  0  0  0  0  0  0  0
  -28.9603  -14.2985    8.3330 O   0  0  0  0  0  0  0  0  0  0  0  0
  -29.8546  -13.5491    8.0477 C   0  0  0  0  0  0  0  0  0  0  0  0
  -29.8697  -12.7101    6.7795 C   0  0  0  0  0  0  0  0  0  0  0  0
  -28.9504  -13.3327    5.7171 C   0  0  0  0  0  0  0  0  0  0  0  0
  -30.2293  -11.9200    3.9750 C   0  0  0  0  0  0  0  0  0  0  0  0
  -30.1541  -11.8311    2.4803 C   0  0  0  0  0  0  0  0  0  0  0  0
  -29.3217  -10.8997    1.8677 C   0  0  0  0  0  0  0  0  0  0  0  0
  -29.2813  -10.8060    0.4872 C   0  0  0  0  0  0  0  0  0  0  0  0
  -30.0693  -11.6457   -0.2738 C   0  0  0  0  0  0  0  0  0  0  0  0
  -30.8985  -12.5835    0.3406 C   0  0  0  0  0  0  0  0  0  0  0  0
  -30.9440  -12.6777    1.7131 C   0  0  0  0  0  0  0  0  0  0  0  0
  2  4  1  0  0  0  0
  3  4  1  0  0  0  0
  5  6  2  0  0  0  0
  3  6  1  0  0  0  0
  6  7  1  0  0  0  0
  1  8  1  0  0  0  0
  7  8  1  0  0  0  0
  1  9  1  0  0  0  0
  9 10  1  0  0  0  0
 10 15  4  0  0  0  0
 10 11  4  0  0  0  0
 11 12  4  0  0  0  0
 12 13  4  0  0  0  0
 13 14  4  0  0  0  0
 14 15  4  0  0  0  0
 17 19  1  0  0  0  0
 18 19  1  0  0  0  0
 20 21  2  0  0  0  0
 18 21  1  0  0  0  0
 21 22  1  0  0  0  0
 16 23  1  0  0  0  0
 22 23  1  0  0  0  0
 16 24  1  0  0  0  0
 24 25  1  0  0  0  0
 25 30  4  0  0  0  0
 25 26  4  0  0  0  0
 26 27  4  0  0  0  0
 27 28  4  0  0  0  0
 28 29  4  0  0  0  0
 29 30  4  0  0  0  0
M  END
$$$$
