7FMM
  PyMOL2.5          3D                             0

 32 32  0  0  0  0  0  0  0  0999 V2000
   51.5521   15.6591  -30.7889 N   0  0  0  0  0  0  0  0  0  0  0  0
   49.6901    8.5368  -27.9757 C   0  0  0  0  0  0  0  0  0  0  0  0
   48.8175   13.1122  -29.0975 O   0  0  0  0  0  0  0  0  0  0  0  0
   49.9680    9.9775  -27.8068 C   0  0  0  0  0  0  0  0  0  0  0  0
   50.8152   13.9152  -27.5941 O   0  0  0  0  0  0  0  0  0  0  0  0
   50.7700   10.4060  -26.7903 C   0  0  0  0  0  0  0  0  0  0  0  0
   50.0627   16.2116  -29.1494 O   0  0  0  0  0  0  0  0  0  0  0  0
   51.0297   11.7343  -26.6515 C   0  0  0  0  0  0  0  0  0  0  0  0
   52.8195   15.1978  -30.7958 O   0  0  0  0  0  0  0  0  0  0  0  0
   50.4614   12.6345  -27.5254 C   0  0  0  0  0  0  0  0  0  0  0  0
   49.6040   12.2111  -28.4742 C   0  0  0  0  0  0  0  0  0  0  0  0
   49.3910   10.8668  -28.6665 C   0  0  0  0  0  0  0  0  0  0  0  0
   48.8970   12.9839  -30.3982 C   0  0  0  0  0  0  0  0  0  0  0  0
   51.3419   14.1505  -28.8795 C   0  0  0  0  0  0  0  0  0  0  0  0
   50.8837   15.4407  -29.5663 C   0  0  0  0  0  0  0  0  0  0  0  0
   53.6981   15.9193  -29.9707 C   0  0  0  0  0  0  0  0  0  0  0  0
   48.5217    8.7388  -39.7493 N   0  0  0  0  0  0  0  0  0  0  0  0
   43.5785   13.8387  -38.9371 C   0  0  0  0  0  0  0  0  0  0  0  0
   47.8455   13.4696  -41.2549 O   0  0  0  0  0  0  0  0  0  0  0  0
   44.8783   13.1791  -39.1487 C   0  0  0  0  0  0  0  0  0  0  0  0
   48.4233   11.3612  -39.6626 O   0  0  0  0  0  0  0  0  0  0  0  0
   45.2251   12.0841  -38.4055 C   0  0  0  0  0  0  0  0  0  0  0  0
   48.9407    8.6944  -37.6452 O   0  0  0  0  0  0  0  0  0  0  0  0
   46.3866   11.4675  -38.5880 C   0  0  0  0  0  0  0  0  0  0  0  0
   47.3296    8.3682  -39.8494 O   0  0  0  0  0  0  0  0  0  0  0  0
   47.2499   11.9179  -39.5171 C   0  0  0  0  0  0  0  0  0  0  0  0
   46.9429   13.0254  -40.3060 C   0  0  0  0  0  0  0  0  0  0  0  0
   45.7331   13.6401  -40.0904 C   0  0  0  0  0  0  0  0  0  0  0  0
   47.5714   14.4925  -42.1195 C   0  0  0  0  0  0  0  0  0  0  0  0
   48.9763   10.8295  -38.5192 C   0  0  0  0  0  0  0  0  0  0  0  0
   48.8105    9.3340  -38.5479 C   0  0  0  0  0  0  0  0  0  0  0  0
   47.2828    7.0245  -39.4918 C   0  0  0  0  0  0  0  0  0  0  0  0
  2  4  1  0  0  0  0
  4  6  4  0  0  0  0
  4 12  4  0  0  0  0
  5 10  1  0  0  0  0
  6  8  4  0  0  0  0
  1  9  1  0  0  0  0
  9 16  1  0  0  0  0
  8 10  4  0  0  0  0
  3 11  1  0  0  0  0
 10 11  4  0  0  0  0
 11 12  4  0  0  0  0
  3 13  1  0  0  0  0
  5 14  1  0  0  0  0
 14 15  1  0  0  0  0
  1 15  1  0  0  0  0
  7 15  2  0  0  0  0
 18 20  1  0  0  0  0
 20 22  4  0  0  0  0
 20 28  4  0  0  0  0
 21 26  1  0  0  0  0
 22 24  4  0  0  0  0
 17 25  1  0  0  0  0
 25 32  1  0  0  0  0
 24 26  4  0  0  0  0
 19 27  1  0  0  0  0
 26 27  4  0  0  0  0
 27 28  4  0  0  0  0
 19 29  1  0  0  0  0
 21 30  1  0  0  0  0
 30 31  1  0  0  0  0
 17 31  1  0  0  0  0
 23 31  2  0  0  0  0
M  END
$$$$
