7FMU
  PyMOL2.5          3D                             0

 15 16  0  0  0  0  0  0  0  0999 V2000
   55.5326   10.4456    9.3876 N   0  0  0  0  0  0  0  0  0  0  0  0
   56.8753    9.8552   11.2684 C   0  0  0  0  0  0  0  0  0  0  0  0
   55.9594    9.5483   10.2147 C   0  0  0  0  0  0  0  0  0  0  0  0
   54.0412   11.9983    7.8185 N   0  0  0  0  0  0  0  0  0  0  0  0
   52.8093   10.4414    3.8859 S   0  0  0  0  0  0  0  0  0  0  0  0
   54.6906    9.8639    8.4532 C   0  0  0  0  0  0  0  0  0  0  0  0
   52.9958   12.3382    5.6137 N   0  0  0  0  0  0  0  0  0  0  0  0
   54.4993    8.5318    8.5910 C   0  0  0  0  0  0  0  0  0  0  0  0
   53.7043   10.1827    6.3165 N   0  0  0  0  0  0  0  0  0  0  0  0
   54.1184   10.7262    7.4820 C   0  0  0  0  0  0  0  0  0  0  0  0
   53.3721   14.0397    7.1376 N   0  0  0  0  0  0  0  0  0  0  0  0
   53.4689   12.7677    6.8494 C   0  0  0  0  0  0  0  0  0  0  0  0
   53.1641   11.0590    5.4285 C   0  0  0  0  0  0  0  0  0  0  0  0
   52.2923   11.8865    3.0730 C   0  0  0  0  0  0  0  0  0  0  0  0
   55.3625    7.9362    9.9148 S   0  0  0  0  0  0  0  0  0  0  0  0
  1  3  4  0  0  0  0
  2  3  1  0  0  0  0
  3 15  4  0  0  0  0
  4 10  4  0  0  0  0
  4 12  4  0  0  0  0
  1  6  4  0  0  0  0
  7 12  4  0  0  0  0
  7 13  4  0  0  0  0
  6  8  4  0  0  0  0
  8 15  4  0  0  0  0
  9 10  4  0  0  0  0
  6 10  1  0  0  0  0
 11 12  1  0  0  0  0
  5 13  1  0  0  0  0
  9 13  4  0  0  0  0
  5 14  1  0  0  0  0
M  END
$$$$
