7FMY
  PyMOL2.5          3D                             0

 26 27  0  0  0  0  0  0  0  0999 V2000
   32.1495   -2.9171   25.7577 N   0  0  0  0  0  0  0  0  0  0  0  0
   33.3535    0.9332   24.9777 C   0  0  0  0  0  0  0  0  0  0  0  0
   33.5139    0.3988   26.2252 C   0  0  0  0  0  0  0  0  0  0  0  0
   31.2814   -5.5899   25.9829 N   0  0  0  0  0  0  0  0  0  0  0  0
   33.1381   -0.9029   26.4844 C   0  0  0  0  0  0  0  0  0  0  0  0
   32.5856   -1.6757   25.4833 C   0  0  0  0  0  0  0  0  0  0  0  0
   33.1140   -4.0147   25.7582 C   0  0  0  0  0  0  0  0  0  0  0  0
   32.5708   -5.1915   26.5162 C   0  0  0  0  0  0  0  0  0  0  0  0
   30.3381   -4.4976   26.1035 C   0  0  0  0  0  0  0  0  0  0  0  0
   30.8203   -3.3140   25.3068 C   0  0  0  0  0  0  0  0  0  0  0  0
   32.4475   -1.1445   24.2135 C   0  0  0  0  0  0  0  0  0  0  0  0
   32.8287    0.1633   23.9719 C   0  0  0  0  0  0  0  0  0  0  0  0
   33.6402    1.9645   24.7830 H   0  0  0  0  0  0  0  0  0  0  0  0
   33.9420    1.0053   27.0230 H   0  0  0  0  0  0  0  0  0  0  0  0
   33.2966   -1.2775   27.4939 H   0  0  0  0  0  0  0  0  0  0  0  0
   34.0765   -3.6903   26.1509 H   0  0  0  0  0  0  0  0  0  0  0  0
   33.3167   -4.2718   24.7194 H   0  0  0  0  0  0  0  0  0  0  0  0
   32.4245   -4.9221   27.5615 H   0  0  0  0  0  0  0  0  0  0  0  0
   33.3080   -5.9928   26.5482 H   0  0  0  0  0  0  0  0  0  0  0  0
   31.3671   -5.8901   25.0160 H   0  0  0  0  0  0  0  0  0  0  0  0
   29.3783   -4.8426   25.7232 H   0  0  0  0  0  0  0  0  0  0  0  0
   30.1376   -4.1969   27.1301 H   0  0  0  0  0  0  0  0  0  0  0  0
   30.8768   -3.5429   24.2437 H   0  0  0  0  0  0  0  0  0  0  0  0
   30.1110   -2.4919   25.3819 H   0  0  0  0  0  0  0  0  0  0  0  0
   32.0673   -1.7275   23.3763 H   0  0  0  0  0  0  0  0  0  0  0  0
   32.7094    0.5789   22.9722 H   0  0  0  0  0  0  0  0  0  0  0  0
  1 10  1  0  0  0  0
  2  3  4  0  0  0  0
  2 13  1  0  0  0  0
  3 14  1  0  0  0  0
  4  8  1  0  0  0  0
  4  9  1  0  0  0  0
  4 20  1  0  0  0  0
  3  5  4  0  0  0  0
  5  6  4  0  0  0  0
  5 15  1  0  0  0  0
  1  6  1  0  0  0  0
  1  7  1  0  0  0  0
  7  8  1  0  0  0  0
  7 16  1  0  0  0  0
  7 17  1  0  0  0  0
  8 18  1  0  0  0  0
  8 19  1  0  0  0  0
  9 10  1  0  0  0  0
  9 21  1  0  0  0  0
  9 22  1  0  0  0  0
 10 23  1  0  0  0  0
 10 24  1  0  0  0  0
  6 11  4  0  0  0  0
 11 25  1  0  0  0  0
  2 12  4  0  0  0  0
 11 12  4  0  0  0  0
 12 26  1  0  0  0  0
M  END
$$$$
