7FN0
  PyMOL2.5          3D                             0

 14 14  0  0  0  0  0  0  0  0999 V2000
   34.1852  -54.3615  -40.0827 C   0  0  0  0  0  0  0  0  0  0  0  0
   36.1751  -53.2050  -39.7551 O   0  0  0  0  0  0  0  0  0  0  0  0
   35.6846  -54.4489  -40.1093 C   0  0  0  0  0  0  0  0  0  0  0  0
   39.7515  -49.6034  -44.0145 O   0  0  0  0  0  0  0  0  0  0  0  0
   36.1961  -55.4194  -39.0743 C   0  0  0  0  0  0  0  0  0  0  0  0
   41.3799  -49.3574  -42.5314 O   0  5  0  0  0  0  0  0  0  0  0  0
   37.5149  -53.1401  -39.3484 C   0  0  0  0  0  0  0  0  0  0  0  0
   38.1888  -52.1126  -40.1791 C   0  0  0  0  0  0  0  0  0  0  0  0
   37.5138  -51.4229  -41.1534 C   0  0  0  0  0  0  0  0  0  0  0  0
   38.1725  -50.5983  -42.0152 C   0  0  0  0  0  0  0  0  0  0  0  0
   39.5063  -50.4664  -41.8858 C   0  0  0  0  0  0  0  0  0  0  0  0
   40.1756  -51.0892  -40.8927 C   0  0  0  0  0  0  0  0  0  0  0  0
   39.5161  -51.9204  -40.0346 C   0  0  0  0  0  0  0  0  0  0  0  0
   40.2780  -49.7347  -42.8986 C   0  0  0  0  0  0  0  0  0  0  0  0
  1  3  1  0  0  0  0
  2  3  1  0  0  0  0
  3  5  1  0  0  0  0
  4 14  4  0  0  0  0
  6 14  4  0  0  0  0
  2  7  1  0  0  0  0
  7  8  1  0  0  0  0
  8  9  4  0  0  0  0
  9 10  4  0  0  0  0
 10 11  4  0  0  0  0
 11 12  4  0  0  0  0
 11 14  1  0  0  0  0
 12 13  4  0  0  0  0
  8 13  4  0  0  0  0
M  END
$$$$
