7FNA
  PyMOL2.5          3D                             0

 14 14  0  0  0  0  0  0  0  0999 V2000
  -34.7030    9.0248   21.8794 N   0  0  0  0  0  0  0  0  0  0  0  0
  -34.5196    7.9528   20.9174 C   0  0  0  0  0  0  0  0  0  0  0  0
  -35.6133    9.3960   24.0910 O   0  0  0  0  0  0  0  0  0  0  0  0
  -33.1852    9.4085   24.0405 C   0  0  0  0  0  0  0  0  0  0  0  0
  -34.4205    7.4025   23.4909 O   0  0  0  0  0  0  0  0  0  0  0  0
  -32.3602    8.5050   24.6826 C   0  0  0  0  0  0  0  0  0  0  0  0
  -29.7185   10.4100   26.0443 O   0  0  0  0  0  0  0  0  0  0  0  0
  -31.2934    8.8411   25.3439 C   0  0  0  0  0  0  0  0  0  0  0  0
  -30.9023   10.1688   25.4268 C   0  0  0  0  0  0  0  0  0  0  0  0
  -31.6605   11.0497   24.7929 C   0  0  0  0  0  0  0  0  0  0  0  0
  -32.8037   10.7596   24.0840 C   0  0  0  0  0  0  0  0  0  0  0  0
  -29.1651    9.4476   26.7769 C   0  0  0  0  0  0  0  0  0  0  0  0
  -31.1725   12.6449   24.9395 Br  0  0  0  0  0  0  0  0  0  0  0  0
  -34.5929    8.7916   23.3975 S   0  0  0  0  0  0  0  0  0  0  0  0
  1  2  1  0  0  0  0
  4  6  4  0  0  0  0
  4 11  4  0  0  0  0
  4 14  1  0  0  0  0
  5 14  2  0  0  0  0
  6  8  4  0  0  0  0
  7  9  1  0  0  0  0
  8  9  4  0  0  0  0
  9 10  4  0  0  0  0
 10 11  4  0  0  0  0
 10 13  1  0  0  0  0
  7 12  1  0  0  0  0
  1 14  1  0  0  0  0
  3 14  2  0  0  0  0
M  END
$$$$
