7FNF
  PyMOL2.5          3D                             0

 14 14  0  0  0  0  0  0  0  0999 V2000
  -24.6412   -3.1123  -26.2324 N   0  0  0  0  0  0  0  0  0  0  0  0
  -28.8608   -3.3425  -28.2384 C   0  0  0  0  0  0  0  0  0  0  0  0
  -23.6793   -4.8853  -27.2821 O   0  0  0  0  0  0  0  0  0  0  0  0
  -27.7877   -2.2570  -28.4079 C   0  0  0  0  0  0  0  0  0  0  0  0
  -21.7257   -4.4263  -23.4979 N   0  0  0  0  0  0  0  0  0  0  0  0
  -26.7898   -2.0586  -27.2079 C   0  0  0  0  0  0  0  0  0  0  0  0
  -22.3975   -3.6726  -24.3208 N   0  0  0  0  0  0  0  0  0  0  0  0
  -25.5588   -2.8975  -27.3597 C   0  0  0  0  0  0  0  0  0  0  0  0
  -26.2546   -4.1849  -27.4855 C   0  0  0  0  0  0  0  0  0  0  0  0
  -24.7672   -2.6743  -28.6299 C   0  0  0  0  0  0  0  0  0  0  0  0
  -23.7622   -4.1984  -26.3265 C   0  0  0  0  0  0  0  0  0  0  0  0
  -22.8756   -4.5276  -25.2167 C   0  0  0  0  0  0  0  0  0  0  0  0
  -22.4674   -5.8367  -24.9363 C   0  0  0  0  0  0  0  0  0  0  0  0
  -21.7447   -5.7283  -23.8270 C   0  0  0  0  0  0  0  0  0  0  0  0
  2  4  1  0  0  0  0
  4  6  1  0  0  0  0
  5  7  4  0  0  0  0
  5 14  4  0  0  0  0
  1  8  1  0  0  0  0
  6  8  1  0  0  0  0
  8  9  1  0  0  0  0
  8 10  1  0  0  0  0
  1 11  1  0  0  0  0
  3 11  2  0  0  0  0
  7 12  4  0  0  0  0
 11 12  1  0  0  0  0
 12 13  4  0  0  0  0
 13 14  4  0  0  0  0
M  END
$$$$
