7FNR
  PyMOL2.5          3D                             0

 15 15  0  0  0  0  0  0  0  0999 V2000
   21.7570  -27.3600   19.6182 N   0  0  0  0  0  0  0  0  0  0  0  0
   28.0218  -28.4264   18.5038 C   0  0  0  0  0  0  0  0  0  0  0  0
   21.1657  -28.9884   18.1729 O   0  0  0  0  0  0  0  0  0  0  0  0
   26.6233  -27.9857   18.5531 C   0  0  0  0  0  0  0  0  0  0  0  0
   22.1496  -29.9898   21.3005 O   0  0  0  0  0  0  0  0  0  0  0  0
   25.6782  -28.7055   19.2553 C   0  0  0  0  0  0  0  0  0  0  0  0
   24.3718  -28.2613   19.3009 C   0  0  0  0  0  0  0  0  0  0  0  0
   24.0166  -27.1173   18.6517 C   0  0  0  0  0  0  0  0  0  0  0  0
   24.9638  -26.4017   17.9481 C   0  0  0  0  0  0  0  0  0  0  0  0
   26.2621  -26.8366   17.8985 C   0  0  0  0  0  0  0  0  0  0  0  0
   22.6130  -26.6400   18.6874 C   0  0  0  0  0  0  0  0  0  0  0  0
   21.0797  -28.4936   19.2636 C   0  0  0  0  0  0  0  0  0  0  0  0
   20.1896  -29.1195   20.3244 C   0  0  0  0  0  0  0  0  0  0  0  0
   20.9637  -29.8182   21.3988 C   0  0  0  0  0  0  0  0  0  0  0  0
   20.1710  -30.2987   22.5505 C   0  0  0  0  0  0  0  0  0  0  0  0
  2  4  1  0  0  0  0
  4  6  4  0  0  0  0
  4 10  4  0  0  0  0
  5 14  2  0  0  0  0
  6  7  4  0  0  0  0
  7  8  4  0  0  0  0
  8  9  4  0  0  0  0
  9 10  4  0  0  0  0
  1 11  1  0  0  0  0
  8 11  1  0  0  0  0
  1 12  1  0  0  0  0
  3 12  2  0  0  0  0
 12 13  1  0  0  0  0
 13 14  1  0  0  0  0
 14 15  1  0  0  0  0
M  END
$$$$
