7FO3
  PyMOL2.5          3D                             0

 13 13  0  0  0  0  0  0  0  0999 V2000
    2.6674   52.5754   -7.1714 N   0  0  0  0  0  0  0  0  0  0  0  0
    9.4021   50.2873   -5.9191 C   0  0  0  0  0  0  0  0  0  0  0  0
    5.8092   52.1503   -6.0265 O   0  0  0  0  0  0  0  0  0  0  0  0
    8.8676   50.7101   -7.1116 C   0  0  0  0  0  0  0  0  0  0  0  0
    3.6937   54.5479   -6.5488 O   0  0  0  0  0  0  0  0  0  0  0  0
    7.6648   51.3447   -7.1313 C   0  0  0  0  0  0  0  0  0  0  0  0
    2.5978   53.0547   -8.4269 O   0  0  0  0  0  0  0  0  0  0  0  0
    7.0063   51.5508   -5.9432 C   0  0  0  0  0  0  0  0  0  0  0  0
    7.5106   51.1420   -4.7470 C   0  0  0  0  0  0  0  0  0  0  0  0
    8.7197   50.4999   -4.7472 C   0  0  0  0  0  0  0  0  0  0  0  0
    5.3374   52.6377   -4.8088 C   0  0  0  0  0  0  0  0  0  0  0  0
    3.8094   52.7001   -4.9621 C   0  0  0  0  0  0  0  0  0  0  0  0
    3.4178   53.3841   -6.2624 C   0  0  0  0  0  0  0  0  0  0  0  0
  1  7  1  0  0  0  0
  2  4  4  0  0  0  0
  4  6  4  0  0  0  0
  3  8  1  0  0  0  0
  6  8  4  0  0  0  0
  8  9  4  0  0  0  0
  2 10  4  0  0  0  0
  9 10  4  0  0  0  0
  3 11  1  0  0  0  0
 11 12  1  0  0  0  0
 12 13  1  0  0  0  0
  1 13  1  0  0  0  0
  5 13  2  0  0  0  0
M  END
$$$$
