7FO7
  PyMOL2.5          3D                             0

 15 16  0  0  0  0  0  0  0  0999 V2000
   18.2079  -30.9335  -46.6720 N   0  0  0  0  0  0  0  0  0  0  0  0
   17.5032  -33.9561  -43.7949 C   0  0  0  0  0  0  0  0  0  0  0  0
   16.9648  -29.0540  -46.5820 O   0  0  0  0  0  0  0  0  0  0  0  0
   16.5409  -33.8653  -44.9447 C   0  0  0  0  0  0  0  0  0  0  0  0
   18.9317  -28.7946  -50.6183 N   0  3  0  0  0  0  0  0  0  0  0  0
   17.1236  -33.0308  -46.0761 C   0  0  0  0  0  0  0  0  0  0  0  0
   17.5239  -31.6440  -45.5971 C   0  0  0  0  0  0  0  0  0  0  0  0
   18.4394  -31.7300  -44.3904 C   0  0  0  0  0  0  0  0  0  0  0  0
   17.8339  -32.5831  -43.2876 C   0  0  0  0  0  0  0  0  0  0  0  0
   17.8935  -29.6941  -47.0601 C   0  0  0  0  0  0  0  0  0  0  0  0
   18.7728  -29.1425  -48.1486 C   0  0  0  0  0  0  0  0  0  0  0  0
   19.1555  -27.6945  -47.8476 C   0  0  0  0  0  0  0  0  0  0  0  0
   19.6148  -26.9775  -49.1080 C   0  0  0  0  0  0  0  0  0  0  0  0
   20.0778  -27.9681  -50.1480 C   0  0  0  0  0  0  0  0  0  0  0  0
   18.0625  -29.2330  -49.4913 C   0  0  0  0  0  0  0  0  0  0  0  0
  2  4  1  0  0  0  0
  4  6  1  0  0  0  0
  5 14  1  0  0  0  0
  5 15  1  0  0  0  0
  1  7  1  0  0  0  0
  6  7  1  0  0  0  0
  7  8  1  0  0  0  0
  2  9  1  0  0  0  0
  8  9  1  0  0  0  0
  1 10  1  0  0  0  0
  3 10  2  0  0  0  0
 10 11  1  0  0  0  0
 11 12  1  0  0  0  0
 11 15  1  0  0  0  0
 12 13  1  0  0  0  0
 13 14  1  0  0  0  0
M  END
$$$$
