7FO8
  PyMOL2.5          3D                             0

 14 14  0  0  0  0  0  0  0  0999 V2000
   24.7412    2.1892   38.6873 N   0  0  0  0  0  0  0  0  0  0  0  0
   26.8887    6.5288   37.3089 C   0  0  0  0  0  0  0  0  0  0  0  0
   23.4293    3.8677   39.3532 O   0  0  0  0  0  0  0  0  0  0  0  0
   25.8626    6.7951   38.1721 C   0  0  0  0  0  0  0  0  0  0  0  0
   23.3186   -1.0128   38.3288 N   0  0  0  0  0  0  0  0  0  0  0  0
   25.0064   -0.6872   39.8860 O   0  0  0  0  0  0  0  0  0  0  0  0
   25.1412    5.8217   38.7220 C   0  0  0  0  0  0  0  0  0  0  0  0
   22.0843   -1.2778   38.7566 O   0  0  0  0  0  0  0  0  0  0  0  0
   25.4260    4.5454   38.3841 C   0  0  0  0  0  0  0  0  0  0  0  0
   26.4188    4.2487   37.5663 C   0  0  0  0  0  0  0  0  0  0  0  0
   27.1572    5.2507   37.0189 C   0  0  0  0  0  0  0  0  0  0  0  0
   24.4717    3.5248   38.8665 C   0  0  0  0  0  0  0  0  0  0  0  0
   23.7389    1.2561   39.1936 C   0  0  0  0  0  0  0  0  0  0  0  0
   24.1144   -0.2050   39.1894 C   0  0  0  0  0  0  0  0  0  0  0  0
  2  4  4  0  0  0  0
  4  7  4  0  0  0  0
  5  8  1  0  0  0  0
  5 14  1  0  0  0  0
  7  9  4  0  0  0  0
  9 10  4  0  0  0  0
  2 11  4  0  0  0  0
 10 11  4  0  0  0  0
  1 12  1  0  0  0  0
  3 12  2  0  0  0  0
  9 12  1  0  0  0  0
  1 13  1  0  0  0  0
 13 14  1  0  0  0  0
  6 14  2  0  0  0  0
M  END
$$$$
