7FO9
  PyMOL2.5          3D                             0

 15 16  0  0  0  0  0  0  0  0999 V2000
   -6.3327   -8.4087   49.3185 N   0  0  0  0  0  0  0  0  0  0  0  0
   -0.9457   -6.0279   51.3305 C   0  0  0  0  0  0  0  0  0  0  0  0
   -2.9710   -8.9262   50.4306 O   0  0  0  0  0  0  0  0  0  0  0  0
   -2.0014   -6.8056   50.9401 C   0  0  0  0  0  0  0  0  0  0  0  0
   -5.0750  -10.3350   49.6144 O   0  0  0  0  0  0  0  0  0  0  0  0
   -1.9671   -8.2552   51.0086 C   0  0  0  0  0  0  0  0  0  0  0  0
   -0.8842   -8.8851   51.5117 C   0  0  0  0  0  0  0  0  0  0  0  0
    0.1783   -8.0444   51.8630 C   0  0  0  0  0  0  0  0  0  0  0  0
    0.1708   -6.6597   51.7932 C   0  0  0  0  0  0  0  0  0  0  0  0
   -4.1288   -8.2233   50.3093 C   0  0  0  0  0  0  0  0  0  0  0  0
   -5.2229   -9.1315   49.7239 C   0  0  0  0  0  0  0  0  0  0  0  0
   -7.4760   -8.9876   48.7350 C   0  0  0  0  0  0  0  0  0  0  0  0
   -7.8233  -10.3414   49.2568 C   0  0  0  0  0  0  0  0  0  0  0  0
   -7.2319  -10.2060   47.8700 C   0  0  0  0  0  0  0  0  0  0  0  0
    1.2970   -8.5938   52.2375 F   0  0  0  0  0  0  0  0  0  0  0  0
  2  4  4  0  0  0  0
  4  6  4  0  0  0  0
  3  6  1  0  0  0  0
  6  7  4  0  0  0  0
  7  8  4  0  0  0  0
  8 15  1  0  0  0  0
  2  9  4  0  0  0  0
  8  9  4  0  0  0  0
  3 10  1  0  0  0  0
  1 11  1  0  0  0  0
  5 11  2  0  0  0  0
 10 11  1  0  0  0  0
  1 12  1  0  0  0  0
 12 13  1  0  0  0  0
 12 14  1  0  0  0  0
 13 14  1  0  0  0  0
M  END
$$$$
