7FOD
  PyMOL2.5          3D                             0

 10 10  0  0  0  0  0  0  0  0999 V2000
   20.0920  -21.2799    0.0803 N   0  0  0  0  0  0  0  0  0  0  0  0
   20.9847  -22.4152    0.2041 C   0  0  0  0  0  0  0  0  0  0  0  0
   19.4821  -22.0311    3.0476 O   0  0  0  0  0  0  0  0  0  0  0  0
   20.4168  -20.0576   -0.4904 C   0  0  0  0  0  0  0  0  0  0  0  0
   17.7875  -23.4104    3.2592 O   0  5  0  0  0  0  0  0  0  0  0  0
   19.2941  -19.2597   -0.3912 C   0  0  0  0  0  0  0  0  0  0  0  0
   18.2742  -20.0092    0.2449 C   0  0  0  0  0  0  0  0  0  0  0  0
   18.7703  -21.2512    0.5226 C   0  0  0  0  0  0  0  0  0  0  0  0
   18.1168  -22.4352    1.1166 C   0  0  0  0  0  0  0  0  0  0  0  0
   18.5081  -22.6492    2.6105 C   0  0  0  0  0  0  0  0  0  0  0  0
  1  2  1  0  0  0  0
  1  4  4  0  0  0  0
  4  6  4  0  0  0  0
  5 10  4  0  0  0  0
  6  7  4  0  0  0  0
  1  8  4  0  0  0  0
  7  8  4  0  0  0  0
  8  9  1  0  0  0  0
  9 10  1  0  0  0  0
  3 10  4  0  0  0  0
M  END
$$$$
