7FOJ
  PyMOL2.5          3D                             0

 48 48  0  0  0  0  0  0  0  0999 V2000
   33.7110   54.8710  -49.2395 N   0  0  0  0  0  0  0  0  0  0  0  0
   33.9312   52.5419  -51.1956 C   0  0  0  0  0  0  0  0  0  0  0  0
   31.5410   54.2931  -49.3906 O   0  0  0  0  0  0  0  0  0  0  0  0
   30.6804   56.4842  -45.3977 Cl  0  0  0  0  0  0  0  0  0  0  0  0
   32.7291   53.3530  -51.0843 C   0  0  0  0  0  0  0  0  0  0  0  0
   32.0025   56.6898  -54.1365 O   0  0  0  0  0  0  0  0  0  0  0  0
   32.6069   54.2168  -49.8342 C   0  0  0  0  0  0  0  0  0  0  0  0
   33.5813   55.7306  -48.0648 C   0  0  0  0  0  0  0  0  0  0  0  0
   34.4924   56.7272  -47.7792 C   0  0  0  0  0  0  0  0  0  0  0  0
   34.1883   57.6412  -46.7971 C   0  0  0  0  0  0  0  0  0  0  0  0
   33.0252   57.6072  -46.0627 C   0  0  0  0  0  0  0  0  0  0  0  0
   32.1536   56.6131  -46.3027 C   0  0  0  0  0  0  0  0  0  0  0  0
   32.4346   55.7001  -47.2671 C   0  0  0  0  0  0  0  0  0  0  0  0
   31.2015   54.7466  -52.9134 C   0  0  0  0  0  0  0  0  0  0  0  0
   31.1289   56.2629  -53.1261 C   0  0  0  0  0  0  0  0  0  0  0  0
   32.8996   54.3848  -52.5387 S   0  0  0  0  0  0  0  0  0  0  0  0
   23.9373   59.2423  -25.2505 N   0  0  0  0  0  0  0  0  0  0  0  0
   22.5002   58.1430  -23.3284 C   0  0  0  0  0  0  0  0  0  0  0  0
   25.5502   57.6461  -24.8379 O   0  0  0  0  0  0  0  0  0  0  0  0
   27.5268   59.0603  -28.7998 Cl  0  0  0  0  0  0  0  0  0  0  0  0
   23.9649   57.9423  -23.1785 C   0  0  0  0  0  0  0  0  0  0  0  0
   26.6128   61.0612  -21.7427 O   0  0  0  0  0  0  0  0  0  0  0  0
   24.5708   58.2579  -24.4839 C   0  0  0  0  0  0  0  0  0  0  0  0
   24.4015   59.6123  -26.5404 C   0  0  0  0  0  0  0  0  0  0  0  0
   23.4757   60.1494  -27.4436 C   0  0  0  0  0  0  0  0  0  0  0  0
   23.8369   60.3808  -28.7423 C   0  0  0  0  0  0  0  0  0  0  0  0
   25.1084   60.0806  -29.1575 C   0  0  0  0  0  0  0  0  0  0  0  0
   26.0075   59.5606  -28.2358 C   0  0  0  0  0  0  0  0  0  0  0  0
   25.7043   59.3406  -26.9390 C   0  0  0  0  0  0  0  0  0  0  0  0
   24.5066   60.6589  -22.7989 C   0  0  0  0  0  0  0  0  0  0  0  0
   25.9246   61.2157  -22.9413 C   0  0  0  0  0  0  0  0  0  0  0  0
   24.5817   59.0603  -21.9049 S   0  0  0  0  0  0  0  0  0  0  0  0
   47.3226   39.4851  -24.5163 N   0  0  0  0  0  0  0  0  0  0  0  0
   49.9502   37.0113  -24.5867 C   0  0  0  0  0  0  0  0  0  0  0  0
   49.2722   39.6989  -25.5962 O   0  0  0  0  0  0  0  0  0  0  0  0
   43.8387   42.7688  -25.6793 Cl  0  0  0  0  0  0  0  0  0  0  0  0
   48.5956   37.4542  -25.0699 C   0  0  0  0  0  0  0  0  0  0  0  0
   48.1109   34.1327  -25.0584 O   0  0  0  0  0  0  0  0  0  0  0  0
   48.4568   38.9849  -25.1082 C   0  0  0  0  0  0  0  0  0  0  0  0
   46.9617   40.8270  -24.4782 C   0  0  0  0  0  0  0  0  0  0  0  0
   47.8224   41.8296  -24.0469 C   0  0  0  0  0  0  0  0  0  0  0  0
   47.3546   43.1522  -24.0789 C   0  0  0  0  0  0  0  0  0  0  0  0
   46.0851   43.4282  -24.5395 C   0  0  0  0  0  0  0  0  0  0  0  0
   45.3172   42.4167  -24.9571 C   0  0  0  0  0  0  0  0  0  0  0  0
   45.7001   41.1260  -24.9242 C   0  0  0  0  0  0  0  0  0  0  0  0
   46.9221   35.6412  -26.5259 C   0  0  0  0  0  0  0  0  0  0  0  0
   47.3931   34.2114  -26.2354 C   0  0  0  0  0  0  0  0  0  0  0  0
   48.3579   36.7309  -26.7406 S   0  0  0  0  0  0  0  0  0  0  0  0
  2  5  1  0  0  0  0
  5  7  1  0  0  0  0
  5 16  1  0  0  0  0
  6 15  1  0  0  0  0
  1  7  1  0  0  0  0
  3  7  2  0  0  0  0
  1  8  1  0  0  0  0
  8  9  4  0  0  0  0
  9 10  4  0  0  0  0
 10 11  4  0  0  0  0
  4 12  1  0  0  0  0
 11 12  4  0  0  0  0
 12 13  4  0  0  0  0
  8 13  4  0  0  0  0
 14 15  1  0  0  0  0
 14 16  1  0  0  0  0
 18 21  1  0  0  0  0
 21 23  1  0  0  0  0
 21 32  1  0  0  0  0
 22 31  1  0  0  0  0
 17 23  1  0  0  0  0
 19 23  2  0  0  0  0
 17 24  1  0  0  0  0
 24 25  4  0  0  0  0
 25 26  4  0  0  0  0
 26 27  4  0  0  0  0
 20 28  1  0  0  0  0
 27 28  4  0  0  0  0
 28 29  4  0  0  0  0
 24 29  4  0  0  0  0
 30 31  1  0  0  0  0
 30 32  1  0  0  0  0
 34 37  1  0  0  0  0
 37 39  1  0  0  0  0
 37 48  1  0  0  0  0
 38 47  1  0  0  0  0
 33 39  1  0  0  0  0
 35 39  2  0  0  0  0
 33 40  1  0  0  0  0
 40 41  4  0  0  0  0
 41 42  4  0  0  0  0
 42 43  4  0  0  0  0
 36 44  1  0  0  0  0
 43 44  4  0  0  0  0
 44 45  4  0  0  0  0
 40 45  4  0  0  0  0
 46 47  1  0  0  0  0
 46 48  1  0  0  0  0
M  END
$$$$
