7FOO
  PyMOL2.5          3D                             0

 26 28  0  0  0  0  0  0  0  0999 V2000
   30.2499  -52.3462   -5.8320 C   0  0  0  0  0  0  0  0  0  0  0  0
   32.1933  -55.7524   -8.0929 N   0  0  0  0  0  0  0  0  0  0  0  0
   31.4341  -56.4719  -10.0669 O   0  0  0  0  0  0  0  0  0  0  0  0
   31.8426  -52.0566   -5.7995 S   0  0  0  0  0  0  0  0  0  0  0  0
   29.8866  -53.4840   -6.4301 C   0  0  0  0  0  0  0  0  0  0  0  0
   33.6013  -57.5557  -11.1071 N   0  3  0  0  0  0  0  0  0  0  0  0
   31.0152  -54.1359   -6.8708 C   0  0  0  0  0  0  0  0  0  0  0  0
   32.1287  -53.4983   -6.5898 C   0  0  0  0  0  0  0  0  0  0  0  0
   30.8972  -55.3363   -7.6141 C   0  0  0  0  0  0  0  0  0  0  0  0
   33.3049  -55.4908   -7.1885 C   0  0  0  0  0  0  0  0  0  0  0  0
   33.4366  -54.0108   -6.9202 C   0  0  0  0  0  0  0  0  0  0  0  0
   32.3260  -56.3408   -9.3242 C   0  0  0  0  0  0  0  0  0  0  0  0
   33.7090  -56.8179   -9.8203 C   0  0  0  0  0  0  0  0  0  0  0  0
   10.5327   18.9583   -1.2402 C   0  0  0  0  0  0  0  0  0  0  0  0
    6.5085   17.9081   -3.3764 N   0  0  0  0  0  0  0  0  0  0  0  0
    5.9844   18.0776   -5.5771 O   0  0  0  0  0  0  0  0  0  0  0  0
   10.0322   17.4558   -0.7220 S   0  0  0  0  0  0  0  0  0  0  0  0
    9.6809   19.5137   -2.1417 C   0  0  0  0  0  0  0  0  0  0  0  0
    5.3977   15.0920   -4.4765 N   0  3  0  0  0  0  0  0  0  0  0  0
    8.5958   18.6516   -2.3956 C   0  0  0  0  0  0  0  0  0  0  0  0
    8.6635   17.5135   -1.6804 C   0  0  0  0  0  0  0  0  0  0  0  0
    7.5348   18.9671   -3.3580 C   0  0  0  0  0  0  0  0  0  0  0  0
    6.2949   17.1636   -2.1220 C   0  0  0  0  0  0  0  0  0  0  0  0
    7.6212   16.4905   -1.7339 C   0  0  0  0  0  0  0  0  0  0  0  0
    5.8162   17.5757   -4.4794 C   0  0  0  0  0  0  0  0  0  0  0  0
    4.7356   16.4640   -4.4000 C   0  0  0  0  0  0  0  0  0  0  0  0
  1  5  4  0  0  0  0
  1  4  4  0  0  0  0
  5  7  4  0  0  0  0
  4  8  4  0  0  0  0
  7  8  4  0  0  0  0
  8 11  1  0  0  0  0
  2  9  1  0  0  0  0
  7  9  1  0  0  0  0
  2 10  1  0  0  0  0
 10 11  1  0  0  0  0
  2 12  1  0  0  0  0
  3 12  2  0  0  0  0
 12 13  1  0  0  0  0
  6 13  1  0  0  0  0
 14 18  4  0  0  0  0
 14 17  4  0  0  0  0
 18 20  4  0  0  0  0
 17 21  4  0  0  0  0
 20 21  4  0  0  0  0
 21 24  1  0  0  0  0
 15 22  1  0  0  0  0
 20 22  1  0  0  0  0
 15 23  1  0  0  0  0
 23 24  1  0  0  0  0
 15 25  1  0  0  0  0
 16 25  2  0  0  0  0
 25 26  1  0  0  0  0
 19 26  1  0  0  0  0
M  END
$$$$
