7FOT
  PyMOL2.5          3D                             0

 15 15  0  0  0  0  0  0  0  0999 V2000
   22.2303   17.6659   -2.7244 N   0  0  0  0  0  0  0  0  0  0  0  0
   17.4723   18.4216   -4.2282 C   0  0  0  0  0  0  0  0  0  0  0  0
   22.5759   15.4135   -2.8724 O   0  0  0  0  0  0  0  0  0  0  0  0
   18.0988   18.2288   -3.0182 C   0  0  0  0  0  0  0  0  0  0  0  0
   24.7945   14.5596   -0.1659 N   0  3  0  0  0  0  0  0  0  0  0  0
   26.0533   14.1148   -0.0756 O   0  0  0  0  0  0  0  0  0  0  0  0
   19.4678   18.0393   -2.9595 C   0  0  0  0  0  0  0  0  0  0  0  0
   25.6019   16.2876   -1.5040 N   0  0  0  0  0  0  0  0  0  0  0  0
   20.2077   18.0433   -4.1152 C   0  0  0  0  0  0  0  0  0  0  0  0
   19.5758   18.2556   -5.3363 C   0  0  0  0  0  0  0  0  0  0  0  0
   18.2205   18.4335   -5.3832 C   0  0  0  0  0  0  0  0  0  0  0  0
   21.6804   17.7542   -4.0907 C   0  0  0  0  0  0  0  0  0  0  0  0
   22.6491   16.4597   -2.2446 C   0  0  0  0  0  0  0  0  0  0  0  0
   23.2289   16.4318   -0.8142 C   0  0  0  0  0  0  0  0  0  0  0  0
   24.5826   15.7427   -0.8337 C   0  0  0  0  0  0  0  0  0  0  0  0
  2  4  4  0  0  0  0
  4  7  4  0  0  0  0
  5  6  1  0  0  0  0
  5 15  1  0  0  0  0
  8 15  1  0  0  0  0
  7  9  4  0  0  0  0
  9 10  4  0  0  0  0
  2 11  4  0  0  0  0
 10 11  4  0  0  0  0
  1 12  1  0  0  0  0
  9 12  1  0  0  0  0
  1 13  1  0  0  0  0
  3 13  2  0  0  0  0
 13 14  1  0  0  0  0
 14 15  1  0  0  0  0
M  END
$$$$
