7FOU
  PyMOL2.5          3D                             0

 14 14  0  0  0  0  0  0  0  0999 V2000
   12.1143   -3.5020   25.6533 N   0  3  0  0  0  0  0  0  0  0  0  0
   10.9518   -2.2692   23.8246 C   0  0  0  0  0  0  0  0  0  0  0  0
    9.3955   -4.0674   25.5693 O   0  0  0  0  0  0  0  0  0  0  0  0
   11.5237   -2.1258   25.2383 C   0  0  0  0  0  0  0  0  0  0  0  0
   10.4565   -1.6448   26.2184 C   0  0  0  0  0  0  0  0  0  0  0  0
   11.3596   -4.2198   26.7606 C   0  0  0  0  0  0  0  0  0  0  0  0
   10.2139   -5.0407   26.1261 C   0  0  0  0  0  0  0  0  0  0  0  0
    9.5730   -5.8668   27.2169 C   0  0  0  0  0  0  0  0  0  0  0  0
   10.2950   -6.8973   27.7854 C   0  0  0  0  0  0  0  0  0  0  0  0
    9.7516   -7.7037   28.7538 C   0  0  0  0  0  0  0  0  0  0  0  0
    8.4557   -7.4631   29.1640 C   0  0  0  0  0  0  0  0  0  0  0  0
    7.7000   -6.4232   28.6102 C   0  0  0  0  0  0  0  0  0  0  0  0
    8.2726   -5.6260   27.6330 C   0  0  0  0  0  0  0  0  0  0  0  0
    7.9416   -8.2233   30.1081 F   0  0  0  0  0  0  0  0  0  0  0  0
  1  4  1  0  0  0  0
  2  4  1  0  0  0  0
  4  5  1  0  0  0  0
  1  6  1  0  0  0  0
  3  7  1  0  0  0  0
  6  7  1  0  0  0  0
  7  8  1  0  0  0  0
  8  9  4  0  0  0  0
  8 13  4  0  0  0  0
  9 10  4  0  0  0  0
 10 11  4  0  0  0  0
 11 12  4  0  0  0  0
 11 14  1  0  0  0  0
 12 13  4  0  0  0  0
M  END
$$$$
