7FOV
  PyMOL2.5          3D                             0

 17 17  0  0  0  0  0  0  0  0999 V2000
  -24.9515   27.8762  -18.2572 N   0  0  0  0  0  0  0  0  0  0  0  0
  -23.4088   28.6529  -16.5438 C   0  0  0  0  0  0  0  0  0  0  0  0
  -25.3754   28.2497  -19.4168 O   0  0  0  0  0  0  0  0  0  0  0  0
  -24.1136   28.7625  -17.8039 C   0  0  0  0  0  0  0  0  0  0  0  0
  -24.6425   31.2650  -21.3289 N   0  0  0  0  0  0  0  0  0  0  0  0
  -25.9294   29.5118  -21.8892 O   0  0  0  0  0  0  0  0  0  0  0  0
  -24.0138   29.8138  -18.7926 C   0  0  0  0  0  0  0  0  0  0  0  0
  -27.4551   32.3158  -22.4747 O   0  0  0  0  0  0  0  0  0  0  0  0
  -24.8450   29.4245  -19.8004 C   0  0  0  0  0  0  0  0  0  0  0  0
  -25.2000   30.0548  -21.0988 C   0  0  0  0  0  0  0  0  0  0  0  0
  -24.8376   32.0059  -22.5395 C   0  0  0  0  0  0  0  0  0  0  0  0
  -25.4416   33.3124  -22.3081 C   0  0  0  0  0  0  0  0  0  0  0  0
  -26.6751   32.9637  -21.5779 C   0  0  0  0  0  0  0  0  0  0  0  0
  -27.3701   34.2620  -21.1810 C   0  0  0  0  0  0  0  0  0  0  0  0
  -28.1958   34.1636  -20.2010 F   0  0  0  0  0  0  0  0  0  0  0  0
  -26.6116   35.0828  -20.7445 F   0  0  0  0  0  0  0  0  0  0  0  0
  -27.9401   34.8617  -22.1269 F   0  0  0  0  0  0  0  0  0  0  0  0
  1  3  4  0  0  0  0
  1  4  4  0  0  0  0
  2  4  1  0  0  0  0
  4  7  4  0  0  0  0
  5 10  1  0  0  0  0
  5 11  1  0  0  0  0
  6 10  2  0  0  0  0
  3  9  4  0  0  0  0
  7  9  4  0  0  0  0
  9 10  1  0  0  0  0
 11 12  1  0  0  0  0
  8 13  1  0  0  0  0
 12 13  1  0  0  0  0
 13 14  1  0  0  0  0
 14 15  1  0  0  0  0
 14 16  1  0  0  0  0
 14 17  1  0  0  0  0
M  END
$$$$
