7FOW
  PyMOL2.5          3D                             0

 14 14  0  0  0  0  0  0  0  0999 V2000
   38.7950  -24.8690   11.5103 N   0  3  0  0  0  0  0  0  0  0  0  0
   36.7880  -29.2202   12.2936 C   0  0  0  0  0  0  0  0  0  0  0  0
   41.0451  -23.0144   16.2289 O   0  0  0  0  0  0  0  0  0  0  0  0
   37.9557  -28.4025   11.9353 C   0  0  0  0  0  0  0  0  0  0  0  0
   39.2149  -24.5176   13.7089 N   0  0  0  0  0  0  0  0  0  0  0  0
   39.1251  -28.9985   11.5275 C   0  0  0  0  0  0  0  0  0  0  0  0
   40.2166  -28.2401   11.1925 C   0  0  0  0  0  0  0  0  0  0  0  0
   40.1597  -26.8691   11.2399 C   0  0  0  0  0  0  0  0  0  0  0  0
   38.9623  -26.2880   11.6236 C   0  0  0  0  0  0  0  0  0  0  0  0
   37.8750  -27.0384   11.9916 C   0  0  0  0  0  0  0  0  0  0  0  0
   38.8949  -24.0320   12.5124 C   0  0  0  0  0  0  0  0  0  0  0  0
   39.3615  -23.6830   14.8920 C   0  0  0  0  0  0  0  0  0  0  0  0
   40.8034  -23.1945   14.9004 C   0  0  0  0  0  0  0  0  0  0  0  0
   38.5522  -22.3031   12.3431 S   0  0  0  0  0  0  0  0  0  0  0  0
  2  4  1  0  0  0  0
  4  6  4  0  0  0  0
  4 10  4  0  0  0  0
  5 11  1  0  0  0  0
  5 12  1  0  0  0  0
  6  7  4  0  0  0  0
  7  8  4  0  0  0  0
  1  9  1  0  0  0  0
  8  9  4  0  0  0  0
  9 10  4  0  0  0  0
  1 11  1  0  0  0  0
 11 14  1  0  0  0  0
 12 13  1  0  0  0  0
  3 13  1  0  0  0  0
M  END
$$$$
