7FPC
  PyMOL2.5          3D                             0

 15 15  0  0  0  0  0  0  0  0999 V2000
   33.3385  -37.8881  -49.8145 N   0  0  0  0  0  0  0  0  0  0  0  0
   33.0319  -34.9516  -49.1788 C   0  0  0  0  0  0  0  0  0  0  0  0
   31.1949  -37.9196  -50.4614 O   0  0  0  0  0  0  0  0  0  0  0  0
   32.6302  -35.6311  -50.4426 C   0  0  0  0  0  0  0  0  0  0  0  0
   33.7045  -42.0682  -51.4072 N   0  0  0  0  0  0  0  0  0  0  0  0
   33.5579  -36.8036  -50.7935 C   0  0  0  0  0  0  0  0  0  0  0  0
   35.0372  -36.4021  -50.9668 C   0  0  0  0  0  0  0  0  0  0  0  0
   35.7306  -36.2812  -49.6610 C   0  0  0  0  0  0  0  0  0  0  0  0
   35.8157  -37.6820  -49.1192 C   0  0  0  0  0  0  0  0  0  0  0  0
   34.4400  -38.3543  -48.9407 C   0  0  0  0  0  0  0  0  0  0  0  0
   32.0874  -38.4376  -49.8358 C   0  0  0  0  0  0  0  0  0  0  0  0
   31.8378  -39.6593  -49.0302 C   0  0  0  0  0  0  0  0  0  0  0  0
   31.4559  -40.7899  -51.5107 C   0  0  0  0  0  0  0  0  0  0  0  0
   32.7050  -41.4963  -51.4535 C   0  0  0  0  0  0  0  0  0  0  0  0
   30.7487  -40.8001  -49.8695 S   0  0  0  0  0  0  0  0  0  0  0  0
  2  4  1  0  0  0  0
  4  6  1  0  0  0  0
  5 14  3  0  0  0  0
  1  6  1  0  0  0  0
  6  7  1  0  0  0  0
  7  8  1  0  0  0  0
  8  9  1  0  0  0  0
  9 10  1  0  0  0  0
  1 10  1  0  0  0  0
  1 11  1  0  0  0  0
  3 11  2  0  0  0  0
 11 12  1  0  0  0  0
 12 15  1  0  0  0  0
 13 14  1  0  0  0  0
 13 15  1  0  0  0  0
M  END
$$$$
