7FPE
  PyMOL2.5          3D                             0

 14 14  0  0  0  0  0  0  0  0999 V2000
   27.9151   34.8550   64.0102 N   0  0  0  0  0  0  0  0  0  0  0  0
   28.9334   35.1154   59.6350 C   0  0  0  0  0  0  0  0  0  0  0  0
   31.1375   37.3353   61.7458 O   0  0  0  0  0  0  0  0  0  0  0  0
   28.3568   36.0630   60.6645 C   0  0  0  0  0  0  0  0  0  0  0  0
   27.5697   35.1380   62.8638 N   0  0  0  0  0  0  0  0  0  0  0  0
   28.6171   35.6520   62.0537 C   0  0  0  0  0  0  0  0  0  0  0  0
   32.1823   35.4237   62.3079 N   0  0  0  0  0  0  0  0  0  0  0  0
   29.7896   35.7112   62.7543 C   0  0  0  0  0  0  0  0  0  0  0  0
   31.0625   36.2170   62.2276 C   0  0  0  0  0  0  0  0  0  0  0  0
   33.4822   35.8533   61.8078 C   0  0  0  0  0  0  0  0  0  0  0  0
   34.3680   34.6593   61.4935 C   0  0  0  0  0  0  0  0  0  0  0  0
   32.0975   34.1027   62.9313 C   0  0  0  0  0  0  0  0  0  0  0  0
   32.8696   34.1102   64.2539 C   0  0  0  0  0  0  0  0  0  0  0  0
   29.5501   35.1504   64.3205 S   0  0  0  0  0  0  0  0  0  0  0  0
  2  4  1  0  0  0  0
  4  6  1  0  0  0  0
  1  5  4  0  0  0  0
  5  6  4  0  0  0  0
  7  9  1  0  0  0  0
  7 10  1  0  0  0  0
  6  8  4  0  0  0  0
  8 14  4  0  0  0  0
  3  9  2  0  0  0  0
  8  9  1  0  0  0  0
 10 11  1  0  0  0  0
  7 12  1  0  0  0  0
 12 13  1  0  0  0  0
  1 14  4  0  0  0  0
M  END
$$$$
