7FPF
  PyMOL2.5          3D                             0

 16 16  0  0  0  0  0  0  0  0999 V2000
  -33.6992    8.6351   -7.2598 N   0  0  0  0  0  0  0  0  0  0  0  0
  -32.8444    8.3111   -8.4111 C   0  0  0  0  0  0  0  0  0  0  0  0
  -37.0833    9.3955   -7.2919 O   0  0  0  0  0  0  0  0  0  0  0  0
  -35.0557    8.0589   -7.2921 C   0  0  0  0  0  0  0  0  0  0  0  0
  -36.1326    9.3254   -9.2134 O   0  0  0  0  0  0  0  0  0  0  0  0
  -36.1328    8.9569   -7.8997 C   0  0  0  0  0  0  0  0  0  0  0  0
  -33.3141    9.7118   -5.2746 O   0  0  0  0  0  0  0  0  0  0  0  0
  -35.1142    8.8598  -10.0512 C   0  0  0  0  0  0  0  0  0  0  0  0
  -31.5813    5.3447   -2.8078 O   0  0  0  0  0  0  0  0  0  0  0  0
  -33.0818    8.7520   -5.9854 C   0  0  0  0  0  0  0  0  0  0  0  0
  -32.1487    7.6699   -5.5491 C   0  0  0  0  0  0  0  0  0  0  0  0
  -31.0207    7.3646   -6.3060 C   0  0  0  0  0  0  0  0  0  0  0  0
  -30.1246    6.4116   -5.8709 C   0  0  0  0  0  0  0  0  0  0  0  0
  -30.3329    5.7353   -4.6954 C   0  0  0  0  0  0  0  0  0  0  0  0
  -31.4628    6.0389   -3.9454 C   0  0  0  0  0  0  0  0  0  0  0  0
  -32.3868    6.9993   -4.3496 C   0  0  0  0  0  0  0  0  0  0  0  0
  1  2  1  0  0  0  0
  1  4  1  0  0  0  0
  4  6  1  0  0  0  0
  5  6  1  0  0  0  0
  5  8  1  0  0  0  0
  3  6  2  0  0  0  0
  1 10  1  0  0  0  0
  7 10  2  0  0  0  0
 10 11  1  0  0  0  0
 11 12  4  0  0  0  0
 11 16  4  0  0  0  0
 12 13  4  0  0  0  0
 13 14  4  0  0  0  0
 14 15  4  0  0  0  0
  9 15  1  0  0  0  0
 15 16  4  0  0  0  0
M  END
$$$$
