7FPG
  PyMOL2.5          3D                             0

 12 12  0  0  0  0  0  0  0  0999 V2000
   31.1508   17.2499  -38.4076 C   0  0  0  0  0  0  0  0  0  0  0  0
   29.5066   15.5677  -39.7782 O   0  0  0  0  0  0  0  0  0  0  0  0
   32.0949   18.1192  -37.8957 C   0  0  0  0  0  0  0  0  0  0  0  0
   33.9685   18.5311  -36.6136 O   0  0  0  0  0  0  0  0  0  0  0  0
   33.1673   17.6031  -37.1781 C   0  0  0  0  0  0  0  0  0  0  0  0
   33.3336   16.2381  -37.0047 C   0  0  0  0  0  0  0  0  0  0  0  0
   32.3792   15.3643  -37.5327 C   0  0  0  0  0  0  0  0  0  0  0  0
   31.2616   15.8951  -38.2223 C   0  0  0  0  0  0  0  0  0  0  0  0
   30.1169   15.0134  -38.6554 C   0  0  0  0  0  0  0  0  0  0  0  0
   33.2669   19.4712  -35.8658 C   0  0  0  0  0  0  0  0  0  0  0  0
   33.5956   20.6445  -36.3539 F   0  0  0  0  0  0  0  0  0  0  0  0
   33.9211   19.4629  -34.7527 F   0  0  0  0  0  0  0  0  0  0  0  0
  1  3  4  0  0  0  0
  3  5  4  0  0  0  0
  4  5  1  0  0  0  0
  5  6  4  0  0  0  0
  6  7  4  0  0  0  0
  1  8  4  0  0  0  0
  7  8  4  0  0  0  0
  8  9  1  0  0  0  0
  2  9  1  0  0  0  0
  4 10  1  0  0  0  0
 10 11  1  0  0  0  0
 10 12  1  0  0  0  0
M  END
$$$$
