7FR1
  PyMOL2.5          3D                             0

 58 62  0  0  0  0  0  0  0  0999 V2000
  -26.5579   -2.9964  -34.0109 C   0  0  0  0  0  0  0  0  0  0  0  0
  -25.5908   -3.6083  -35.0244 C   0  0  0  0  0  0  0  0  0  0  0  0
  -25.3259   -5.0899  -34.7718 C   0  0  0  0  0  0  0  0  0  0  0  0
  -24.2116   -4.0651  -34.5523 C   0  0  0  0  0  0  0  0  0  0  0  0
  -25.6837   -3.1156  -36.4698 C   0  0  0  0  0  0  0  0  0  0  0  0
  -24.8323   -3.3335  -37.2702 O   0  0  0  0  0  0  0  0  0  0  0  0
  -26.8711   -2.3446  -36.8000 N   0  0  0  0  0  0  0  0  0  0  0  0
  -27.0414   -1.8322  -38.0998 N   0  0  0  0  0  0  0  0  0  0  0  0
  -26.5103   -0.5168  -38.4116 C   0  0  0  0  0  0  0  0  0  0  0  0
  -25.8254    0.1716  -37.5075 N   0  0  0  0  0  0  0  0  0  0  0  0
  -25.3488    1.3735  -37.8159 C   0  0  0  0  0  0  0  0  0  0  0  0
  -25.5253    1.9341  -39.0020 N   0  0  0  0  0  0  0  0  0  0  0  0
  -26.2229    1.2782  -39.9746 C   0  0  0  0  0  0  0  0  0  0  0  0
  -26.5657    1.5759  -41.2562 N   0  0  0  0  0  0  0  0  0  0  0  0
  -27.2667    0.5505  -41.7504 C   0  0  0  0  0  0  0  0  0  0  0  0
  -27.3734   -0.4016  -40.8121 N   0  0  0  0  0  0  0  0  0  0  0  0
  -26.7303    0.0410  -39.7028 C   0  0  0  0  0  0  0  0  0  0  0  0
  -26.3133   -3.3537  -33.0239 H   0  0  0  0  0  0  0  0  0  0  0  0
  -26.4988   -1.9097  -34.0449 H   0  0  0  0  0  0  0  0  0  0  0  0
  -27.5681   -3.3175  -34.2754 H   0  0  0  0  0  0  0  0  0  0  0  0
  -25.2491   -5.7152  -35.6466 H   0  0  0  0  0  0  0  0  0  0  0  0
  -25.7777   -5.4829  -33.8695 H   0  0  0  0  0  0  0  0  0  0  0  0
  -23.4203   -4.0477  -35.3010 H   0  0  0  0  0  0  0  0  0  0  0  0
  -23.9947   -3.8218  -33.5179 H   0  0  0  0  0  0  0  0  0  0  0  0
  -27.5694   -2.1666  -36.1006 H   0  0  0  0  0  0  0  0  0  0  0  0
  -27.5205   -2.3625  -38.7970 H   0  0  0  0  0  0  0  0  0  0  0  0
  -24.7925    1.9131  -37.0661 H   0  0  0  0  0  0  0  0  0  0  0  0
  -27.6717    0.4863  -42.7515 H   0  0  0  0  0  0  0  0  0  0  0  0
  -27.8469   -1.2884  -40.9086 H   0  0  0  0  0  0  0  0  0  0  0  0
  -26.7939  -11.3610  -36.1879 C   0  0  0  0  0  0  0  0  0  0  0  0
  -26.1590  -10.4425  -35.1327 C   0  0  0  0  0  0  0  0  0  0  0  0
  -24.7003  -10.0828  -35.3922 C   0  0  0  0  0  0  0  0  0  0  0  0
  -25.7981   -9.0425  -35.6461 C   0  0  0  0  0  0  0  0  0  0  0  0
  -26.5281  -10.6297  -33.6457 C   0  0  0  0  0  0  0  0  0  0  0  0
  -27.2725  -11.5071  -33.3567 O   0  0  0  0  0  0  0  0  0  0  0  0
  -25.9818   -9.8096  -32.5674 N   0  0  0  0  0  0  0  0  0  0  0  0
  -25.1093   -8.7178  -32.7644 N   0  0  0  0  0  0  0  0  0  0  0  0
  -25.7588   -7.4784  -32.3913 C   0  0  0  0  0  0  0  0  0  0  0  0
  -26.5660   -7.5108  -31.3415 N   0  0  0  0  0  0  0  0  0  0  0  0
  -27.2118   -6.4244  -30.9547 C   0  0  0  0  0  0  0  0  0  0  0  0
  -27.0897   -5.2735  -31.6127 N   0  0  0  0  0  0  0  0  0  0  0  0
  -26.2845   -5.1741  -32.7217 C   0  0  0  0  0  0  0  0  0  0  0  0
  -25.9578   -4.1690  -33.5864 N   0  0  0  0  0  0  0  0  0  0  0  0
  -25.1049   -4.6591  -34.5030 C   0  0  0  0  0  0  0  0  0  0  0  0
  -24.8788   -5.9528  -34.2448 N   0  0  0  0  0  0  0  0  0  0  0  0
  -25.6047   -6.2819  -33.1421 C   0  0  0  0  0  0  0  0  0  0  0  0
  -26.0293  -12.0326  -36.5638 H   0  0  0  0  0  0  0  0  0  0  0  0
  -27.1916  -10.7660  -37.0100 H   0  0  0  0  0  0  0  0  0  0  0  0
  -27.5985  -11.9387  -35.7372 H   0  0  0  0  0  0  0  0  0  0  0  0
  -24.2759  -10.4998  -36.2870 H   0  0  0  0  0  0  0  0  0  0  0  0
  -24.0774   -9.9434  -34.5145 H   0  0  0  0  0  0  0  0  0  0  0  0
  -26.0069   -8.8599  -36.6944 H   0  0  0  0  0  0  0  0  0  0  0  0
  -25.8821   -8.2234  -34.9404 H   0  0  0  0  0  0  0  0  0  0  0  0
  -26.2897   -9.9715  -31.6296 H   0  0  0  0  0  0  0  0  0  0  0  0
  -24.1629   -8.7886  -33.1313 H   0  0  0  0  0  0  0  0  0  0  0  0
  -27.8523   -6.5068  -30.0799 H   0  0  0  0  0  0  0  0  0  0  0  0
  -24.6703   -4.1103  -35.3270 H   0  0  0  0  0  0  0  0  0  0  0  0
  -24.2825   -6.5745  -34.7783 H   0  0  0  0  0  0  0  0  0  0  0  0
  1  2  1  0  0  0  0
  1 18  1  0  0  0  0
  1 19  1  0  0  0  0
  1 20  1  0  0  0  0
  2  3  1  0  0  0  0
  2  4  1  0  0  0  0
  2  5  1  0  0  0  0
  3  4  1  0  0  0  0
  3 21  1  0  0  0  0
  3 22  1  0  0  0  0
  4 23  1  0  0  0  0
  4 24  1  0  0  0  0
  5  6  2  0  0  0  0
  5  7  1  0  0  0  0
  7  8  1  0  0  0  0
  7 25  1  0  0  0  0
  8 26  1  0  0  0  0
  8  9  1  0  0  0  0
  9 10  4  0  0  0  0
 10 11  4  0  0  0  0
 11 12  4  0  0  0  0
 11 27  1  0  0  0  0
 12 13  4  0  0  0  0
 13 14  4  0  0  0  0
 14 15  4  0  0  0  0
 15 16  4  0  0  0  0
 15 28  1  0  0  0  0
 16 29  1  0  0  0  0
  9 17  4  0  0  0  0
 13 17  4  0  0  0  0
 16 17  4  0  0  0  0
 30 31  1  0  0  0  0
 30 47  1  0  0  0  0
 30 48  1  0  0  0  0
 30 49  1  0  0  0  0
 31 32  1  0  0  0  0
 31 33  1  0  0  0  0
 31 34  1  0  0  0  0
 32 33  1  0  0  0  0
 32 50  1  0  0  0  0
 32 51  1  0  0  0  0
 33 52  1  0  0  0  0
 33 53  1  0  0  0  0
 34 35  2  0  0  0  0
 34 36  1  0  0  0  0
 36 37  1  0  0  0  0
 36 54  1  0  0  0  0
 37 55  1  0  0  0  0
 37 38  1  0  0  0  0
 38 39  4  0  0  0  0
 39 40  4  0  0  0  0
 40 41  4  0  0  0  0
 40 56  1  0  0  0  0
 41 42  4  0  0  0  0
 42 43  4  0  0  0  0
 43 44  4  0  0  0  0
 44 45  4  0  0  0  0
 44 57  1  0  0  0  0
 45 58  1  0  0  0  0
 38 46  4  0  0  0  0
 42 46  4  0  0  0  0
 45 46  4  0  0  0  0
M  END
$$$$
