7MAP
  PyMOL2.5          3D                             0

 75 78  0  0  0  0  0  0  0  0999 V2000
  -50.3256   33.2398  -21.1812 N   0  0  0  0  0  0  0  0  0  0  0  0
  -50.6753   31.9553  -21.8537 C   0  0  0  0  0  0  0  0  0  0  0  0
  -51.6892   31.1706  -21.3481 C   0  0  0  0  0  0  0  0  0  0  0  0
  -52.0132   29.9844  -21.9662 C   0  0  0  0  0  0  0  0  0  0  0  0
  -51.3208   29.5787  -23.1090 C   0  0  0  0  0  0  0  0  0  0  0  0
  -50.3149   30.3521  -23.6129 C   0  0  0  0  0  0  0  0  0  0  0  0
  -49.9826   31.5531  -22.9869 C   0  0  0  0  0  0  0  0  0  0  0  0
  -51.7733   27.9887  -23.9180 S   0  0  0  0  0  0  0  0  0  0  0  0
  -53.1616   27.6543  -23.6631 O   0  0  0  0  0  0  0  0  0  0  0  0
  -51.7423   28.0874  -25.4039 O   0  0  0  0  0  0  0  0  0  0  0  0
  -50.7405   26.7350  -23.3121 N   0  0  0  0  0  0  0  0  0  0  0  0
  -49.3218   26.7442  -23.7388 C   0  0  0  0  0  0  0  0  0  0  0  0
  -48.8624   25.3592  -24.2071 C   0  0  0  0  0  0  0  0  0  0  0  0
  -48.4012   25.3820  -25.7054 C   0  0  0  0  0  0  0  0  0  0  0  0
  -47.7191   24.8388  -23.2980 C   0  0  0  0  0  0  0  0  0  0  0  0
  -51.1498   26.0944  -21.9659 C   0  0  0  0  0  0  0  0  0  0  0  0
  -51.5597   24.6048  -22.1599 C   0  0  0  0  0  0  0  0  0  0  0  0
  -51.8260   24.0185  -20.9406 O   0  0  0  0  0  0  0  0  0  0  0  0
  -52.8123   24.4852  -23.0354 C   0  0  0  0  0  0  0  0  0  0  0  0
  -52.9995   23.0640  -23.3034 N   0  0  0  0  0  0  0  0  0  0  0  0
  -52.9437   22.4865  -24.6538 C   0  0  0  0  0  0  0  0  0  0  0  0
  -52.5911   23.1448  -25.5745 O   0  0  0  0  0  0  0  0  0  0  0  0
  -53.3171   21.1543  -24.8030 O   0  0  0  0  0  0  0  0  0  0  0  0
  -53.2028   20.6137  -26.1048 C   0  0  0  0  0  0  0  0  0  0  0  0
  -51.6599   20.0259  -26.2910 C   0  0  0  0  0  0  0  0  0  0  0  0
  -51.6318   18.9422  -25.5010 O   0  0  0  0  0  0  0  0  0  0  0  0
  -53.1251   18.4210  -25.4751 C   0  0  0  0  0  0  0  0  0  0  0  0
  -53.5891   18.4019  -24.3090 O   0  0  0  0  0  0  0  0  0  0  0  0
  -55.1667   18.7954  -24.4607 C   0  0  0  0  0  0  0  0  0  0  0  0
  -55.2520   19.6583  -25.4465 C   0  0  0  0  0  0  0  0  0  0  0  0
  -53.9813   19.5359  -26.2200 C   0  0  0  0  0  0  0  0  0  0  0  0
  -54.0860   24.9702  -22.3583 C   0  0  0  0  0  0  0  0  0  0  0  0
  -55.5493   25.1487  -24.4058 C   0  0  0  0  0  0  0  0  0  0  0  0
  -56.6938   24.8052  -25.1491 C   0  0  0  0  0  0  0  0  0  0  0  0
  -57.6196   23.8834  -24.6293 C   0  0  0  0  0  0  0  0  0  0  0  0
  -57.4049   23.3177  -23.3916 C   0  0  0  0  0  0  0  0  0  0  0  0
  -56.2656   23.6596  -22.6486 C   0  0  0  0  0  0  0  0  0  0  0  0
  -55.3307   24.5882  -23.1696 C   0  0  0  0  0  0  0  0  0  0  0  0
  -52.1532   31.4419  -20.5908 H   0  0  0  0  0  0  0  0  0  0  0  0
  -52.6937   29.4528  -21.6234 H   0  0  0  0  0  0  0  0  0  0  0  0
  -49.8530   30.0780  -24.3705 H   0  0  0  0  0  0  0  0  0  0  0  0
  -49.3005   32.0829  -23.3274 H   0  0  0  0  0  0  0  0  0  0  0  0
  -49.5022   33.4070  -20.9625 H   0  0  0  0  0  0  0  0  0  0  0  0
  -50.9458   33.8224  -21.0077 H   0  0  0  0  0  0  0  0  0  0  0  0
  -49.5951   24.7763  -24.1424 H   0  0  0  0  0  0  0  0  0  0  0  0
  -50.8425   24.1676  -22.5794 H   0  0  0  0  0  0  0  0  0  0  0  0
  -51.8630   23.1920  -21.0322 H   0  0  0  0  0  0  0  0  0  0  0  0
  -52.6787   25.0152  -23.7991 H   0  0  0  0  0  0  0  0  0  0  0  0
  -53.1513   22.5344  -22.6327 H   0  0  0  0  0  0  0  0  0  0  0  0
  -53.4202   21.2509  -26.7597 H   0  0  0  0  0  0  0  0  0  0  0  0
  -53.1946   17.5821  -25.8924 H   0  0  0  0  0  0  0  0  0  0  0  0
  -54.1758   19.3246  -27.1136 H   0  0  0  0  0  0  0  0  0  0  0  0
  -54.9386   25.7567  -24.7520 H   0  0  0  0  0  0  0  0  0  0  0  0
  -56.8374   25.1867  -25.9835 H   0  0  0  0  0  0  0  0  0  0  0  0
  -58.3764   23.6566  -25.1192 H   0  0  0  0  0  0  0  0  0  0  0  0
  -58.0164   22.7086  -23.0487 H   0  0  0  0  0  0  0  0  0  0  0  0
  -56.1231   23.2771  -21.8142 H   0  0  0  0  0  0  0  0  0  0  0  0
  -48.7880   27.0155  -23.0158 H   0  0  0  0  0  0  0  0  0  0  0  0
  -49.2206   27.3554  -24.4449 H   0  0  0  0  0  0  0  0  0  0  0  0
  -47.8181   26.1049  -25.8437 H   0  0  0  0  0  0  0  0  0  0  0  0
  -47.9578   24.5794  -25.9091 H   0  0  0  0  0  0  0  0  0  0  0  0
  -49.1506   25.4745  -26.2632 H   0  0  0  0  0  0  0  0  0  0  0  0
  -47.0896   25.5225  -23.1647 H   0  0  0  0  0  0  0  0  0  0  0  0
  -48.0744   24.5742  -22.4698 H   0  0  0  0  0  0  0  0  0  0  0  0
  -47.3030   24.1045  -23.7082 H   0  0  0  0  0  0  0  0  0  0  0  0
  -50.4243   26.1399  -21.3697 H   0  0  0  0  0  0  0  0  0  0  0  0
  -51.8746   26.5697  -21.6060 H   0  0  0  0  0  0  0  0  0  0  0  0
  -51.0282   20.6585  -26.0055 H   0  0  0  0  0  0  0  0  0  0  0  0
  -51.5032   19.7855  -27.1856 H   0  0  0  0  0  0  0  0  0  0  0  0
  -55.4739   19.1892  -23.6654 H   0  0  0  0  0  0  0  0  0  0  0  0
  -55.6672   18.0283  -24.6644 H   0  0  0  0  0  0  0  0  0  0  0  0
  -55.9831   19.4453  -25.9972 H   0  0  0  0  0  0  0  0  0  0  0  0
  -55.3363   20.5289  -25.1053 H   0  0  0  0  0  0  0  0  0  0  0  0
  -54.1443   24.5867  -21.5033 H   0  0  0  0  0  0  0  0  0  0  0  0
  -54.0493   25.9048  -22.2696 H   0  0  0  0  0  0  0  0  0  0  0  0
  1  2  1  0  0  0  0
  1 43  1  0  0  0  0
  1 44  1  0  0  0  0
  2  3  4  0  0  0  0
  2  7  4  0  0  0  0
  3  4  4  0  0  0  0
  3 39  1  0  0  0  0
  4  5  4  0  0  0  0
  4 40  1  0  0  0  0
  5  6  4  0  0  0  0
  5  8  1  0  0  0  0
  6  7  4  0  0  0  0
  6 41  1  0  0  0  0
  7 42  1  0  0  0  0
  8  9  2  0  0  0  0
  8 10  2  0  0  0  0
  8 11  1  0  0  0  0
 11 12  1  0  0  0  0
 11 16  1  0  0  0  0
 12 13  1  0  0  0  0
 12 58  1  0  0  0  0
 12 59  1  0  0  0  0
 13 14  1  0  0  0  0
 13 15  1  0  0  0  0
 13 45  1  0  0  0  0
 14 60  1  0  0  0  0
 14 61  1  0  0  0  0
 14 62  1  0  0  0  0
 15 63  1  0  0  0  0
 15 64  1  0  0  0  0
 15 65  1  0  0  0  0
 16 17  1  0  0  0  0
 16 66  1  0  0  0  0
 16 67  1  0  0  0  0
 17 18  1  0  0  0  0
 17 19  1  0  0  0  0
 17 46  1  0  0  0  0
 18 47  1  0  0  0  0
 19 20  1  0  0  0  0
 19 32  1  0  0  0  0
 19 48  1  0  0  0  0
 20 21  1  0  0  0  0
 20 49  1  0  0  0  0
 21 22  2  0  0  0  0
 21 23  1  0  0  0  0
 23 24  1  0  0  0  0
 24 25  1  0  0  0  0
 24 31  1  0  0  0  0
 24 50  1  0  0  0  0
 25 26  1  0  0  0  0
 25 68  1  0  0  0  0
 25 69  1  0  0  0  0
 26 27  1  0  0  0  0
 27 28  1  0  0  0  0
 27 31  1  0  0  0  0
 27 51  1  0  0  0  0
 28 29  1  0  0  0  0
 29 30  1  0  0  0  0
 29 70  1  0  0  0  0
 29 71  1  0  0  0  0
 30 31  1  0  0  0  0
 30 72  1  0  0  0  0
 30 73  1  0  0  0  0
 31 52  1  0  0  0  0
 32 38  1  0  0  0  0
 32 74  1  0  0  0  0
 32 75  1  0  0  0  0
 33 34  4  0  0  0  0
 33 38  4  0  0  0  0
 33 53  1  0  0  0  0
 34 35  4  0  0  0  0
 34 54  1  0  0  0  0
 35 36  4  0  0  0  0
 35 55  1  0  0  0  0
 36 37  4  0  0  0  0
 36 56  1  0  0  0  0
 37 38  4  0  0  0  0
 37 57  1  0  0  0  0
M  END
$$$$
