7Q2K
  PyMOL2.5          3D                             0

 13 13  0  0  0  0  0  0  0  0999 V2000
   -8.3276  -12.2116    6.5946 C   0  0  0  0  0  0  0  0  0  0  0  0
   -9.4705  -11.2173    6.7926 C   0  0  0  0  0  0  0  0  0  0  0  0
   -8.9956  -13.5176    6.2139 C   0  0  0  0  0  0  0  0  0  0  0  0
  -10.3185  -13.0796    5.6567 C   0  0  0  0  0  0  0  0  0  0  0  0
  -10.5972  -11.8735    6.1332 N   0  0  0  0  0  0  0  0  0  0  0  0
  -11.0199  -13.7197    4.8717 O   0  0  0  0  0  0  0  0  0  0  0  0
   -9.1314  -14.1952    7.0552 H   0  0  0  0  0  0  0  0  0  0  0  0
   -8.4342  -14.0913    5.4777 H   0  0  0  0  0  0  0  0  0  0  0  0
   -7.7197  -12.3181    7.4924 H   0  0  0  0  0  0  0  0  0  0  0  0
   -7.6267  -11.8802    5.8301 H   0  0  0  0  0  0  0  0  0  0  0  0
   -9.6834  -11.0181    7.8414 H   0  0  0  0  0  0  0  0  0  0  0  0
   -9.2658  -10.2415    6.3541 H   0  0  0  0  0  0  0  0  0  0  0  0
  -11.5015  -11.4177    6.0627 H   0  0  0  0  0  0  0  0  0  0  0  0
  1  2  1  0  0  0  0
  1  9  1  0  0  0  0
  1 10  1  0  0  0  0
  2  5  1  0  0  0  0
  2 11  1  0  0  0  0
  2 12  1  0  0  0  0
  1  3  1  0  0  0  0
  3  7  1  0  0  0  0
  3  8  1  0  0  0  0
  3  4  1  0  0  0  0
  4  5  1  0  0  0  0
  5 13  1  0  0  0  0
  4  6  2  0  0  0  0
M  END
$$$$
