7Q3J
  PyMOL2.5          3D                             0

 28 26  0  0  0  0  0  0  0  0999 V2000
  -27.9415   16.6400   19.2198 C   0  0  0  0  0  0  0  0  0  0  0  0
  -27.1479   17.6791   19.8321 O   0  0  0  0  0  0  0  0  0  0  0  0
  -28.2582   15.6089   20.3512 C   0  0  0  0  0  0  0  0  0  0  0  0
  -28.9678   16.1727   21.4232 O   0  0  0  0  0  0  0  0  0  0  0  0
  -29.0899   14.4447   19.7507 C   0  0  0  0  0  0  0  0  0  0  0  0
  -30.0558   14.1077   20.7506 O   0  0  0  0  0  0  0  0  0  0  0  0
  -26.4476   17.3084   20.1243 H   0  0  0  0  0  0  0  0  0  0  0  0
  -28.6963   15.8103   22.1423 H   0  0  0  0  0  0  0  0  0  0  0  0
  -29.7855   13.4036   21.1319 H   0  0  0  0  0  0  0  0  0  0  0  0
  -27.4004   15.2922   20.6750 H   0  0  0  0  0  0  0  0  0  0  0  0
  -27.4798   16.1931   18.4931 H   0  0  0  0  0  0  0  0  0  0  0  0
  -28.7708   16.9732   18.8427 H   0  0  0  0  0  0  0  0  0  0  0  0
  -28.4968   13.7126   19.5200 H   0  0  0  0  0  0  0  0  0  0  0  0
  -29.4824   14.7308   18.9111 H   0  0  0  0  0  0  0  0  0  0  0  0
   14.1554   12.9191   -3.5477 C   0  0  0  0  0  0  0  0  0  0  0  0
   13.4898   13.3031   -4.7274 O   0  0  0  0  0  0  0  0  0  0  0  0
   14.0047   11.3889   -3.3774 C   0  0  0  0  0  0  0  0  0  0  0  0
   15.0608   10.8023   -2.6278 O   0  0  0  0  0  0  0  0  0  0  0  0
   12.6546   11.1884   -2.6679 C   0  0  0  0  0  0  0  0  0  0  0  0
   12.9818   10.8040   -1.3482 O   0  0  0  0  0  0  0  0  0  0  0  0
   12.9474   12.6709   -4.9130 H   0  0  0  0  0  0  0  0  0  0  0  0
   14.9223    9.9648   -2.5888 H   0  0  0  0  0  0  0  0  0  0  0  0
   13.5164   10.1473   -1.4108 H   0  0  0  0  0  0  0  0  0  0  0  0
   14.0242   10.9701   -4.2521 H   0  0  0  0  0  0  0  0  0  0  0  0
   13.7958   13.3596   -2.7618 H   0  0  0  0  0  0  0  0  0  0  0  0
   15.0994   13.1414   -3.5684 H   0  0  0  0  0  0  0  0  0  0  0  0
   12.1329   10.5272   -3.1490 H   0  0  0  0  0  0  0  0  0  0  0  0
   12.1389   12.0084   -2.7189 H   0  0  0  0  0  0  0  0  0  0  0  0
  1  2  1  0  0  0  0
  1  3  1  0  0  0  0
  1 11  1  0  0  0  0
  1 12  1  0  0  0  0
  2  7  1  0  0  0  0
  3  4  1  0  0  0  0
  3  5  1  0  0  0  0
  3 10  1  0  0  0  0
  4  8  1  0  0  0  0
  5  6  1  0  0  0  0
  5 13  1  0  0  0  0
  5 14  1  0  0  0  0
  6  9  1  0  0  0  0
 15 16  1  0  0  0  0
 15 17  1  0  0  0  0
 15 25  1  0  0  0  0
 15 26  1  0  0  0  0
 16 21  1  0  0  0  0
 17 18  1  0  0  0  0
 17 19  1  0  0  0  0
 17 24  1  0  0  0  0
 18 22  1  0  0  0  0
 19 20  1  0  0  0  0
 19 27  1  0  0  0  0
 19 28  1  0  0  0  0
 20 23  1  0  0  0  0
M  END
$$$$
