7QFV
  PyMOL2.5          3D                             0

118126  0  0  0  0  0  0  0  0999 V2000
    0.1967   14.9641  -16.4180 N   0  0  0  0  0  0  0  0  0  0  0  0
   -1.2386   14.8992  -16.0443 C   0  0  0  0  0  0  0  0  0  0  0  0
   -0.7373   19.9357  -22.4296 C   0  0  0  0  0  0  0  0  0  0  0  0
   -1.8301   20.4041  -23.3827 C   0  0  0  0  0  0  0  0  0  0  0  0
   -5.2965   17.0468  -17.3492 C   0  0  0  0  0  0  0  0  0  0  0  0
   -3.9927   16.6424  -18.0147 C   0  0  0  0  0  0  0  0  0  0  0  0
   -3.4317   17.8984  -18.6856 C   0  0  0  0  0  0  0  0  0  0  0  0
   -0.2334   19.6625  -17.9224 C   0  0  0  0  0  0  0  0  0  0  0  0
   -1.5154   19.4636  -18.7137 C   0  0  0  0  0  0  0  0  0  0  0  0
   -1.1196   19.1507  -20.1598 C   0  0  0  0  0  0  0  0  0  0  0  0
    0.7566   15.7248  -17.3785 C   0  0  0  0  0  0  0  0  0  0  0  0
   -0.5156   20.4965  -16.6803 C   0  0  0  0  0  0  0  0  0  0  0  0
   -2.1776   15.1982  -17.2156 C   0  0  0  0  0  0  0  0  0  0  0  0
   -2.1633   14.5162  -18.2363 O   0  0  0  0  0  0  0  0  0  0  0  0
   -1.1431   20.1626  -21.0206 N   0  0  0  0  0  0  0  0  0  0  0  0
   -3.0221   16.2170  -16.9970 N   0  0  0  0  0  0  0  0  0  0  0  0
   -2.2488   18.3057  -18.1831 N   0  0  0  0  0  0  0  0  0  0  0  0
   -4.0463   18.4641  -19.5952 O   0  0  0  0  0  0  0  0  0  0  0  0
   -0.7473   18.0256  -20.4893 O   0  0  0  0  0  0  0  0  0  0  0  0
    0.1785   16.5357  -18.0978 O   0  0  0  0  0  0  0  0  0  0  0  0
   -1.5193   13.5052  -15.4895 C   0  0  0  0  0  0  0  0  0  0  0  0
    0.6211   20.5759  -15.8922 C   0  0  0  0  0  0  0  0  0  0  0  0
    0.6455   21.7867  -15.3019 C   0  0  0  0  0  0  0  0  0  0  0  0
   -0.7673   21.9557  -17.0326 C   0  0  0  0  0  0  0  0  0  0  0  0
    1.5678   19.6663  -15.6657 C   0  0  0  0  0  0  0  0  0  0  0  0
    2.6152   19.9564  -14.8029 C   0  0  0  0  0  0  0  0  0  0  0  0
    2.6522   21.2035  -14.1995 C   0  0  0  0  0  0  0  0  0  0  0  0
    1.6317   22.1064  -14.4656 C   0  0  0  0  0  0  0  0  0  0  0  0
   -0.4058   22.5104  -15.7153 N   0  0  0  0  0  0  0  0  0  0  0  0
   -0.9705   13.4974  -14.2128 C   0  0  0  0  0  0  0  0  0  0  0  0
    0.0833   12.6524  -13.8825 C   0  0  0  0  0  0  0  0  0  0  0  0
   -1.4826   14.3749  -13.2606 C   0  0  0  0  0  0  0  0  0  0  0  0
    4.1021   20.5797  -22.0106 C   0  0  0  0  0  0  0  0  0  0  0  0
    0.6093   12.6797  -12.5942 C   0  0  0  0  0  0  0  0  0  0  0  0
   -0.9536   14.4067  -11.9757 C   0  0  0  0  0  0  0  0  0  0  0  0
    0.0931   13.5549  -11.6434 C   0  0  0  0  0  0  0  0  0  0  0  0
    0.7869   20.7611  -22.7902 P   0  0  0  0  0  0  0  0  0  0  0  0
    1.7704   20.5829  -21.5566 O   0  0  0  0  0  0  0  0  0  0  0  0
   -2.9848   19.4666  -23.0656 C   0  0  0  0  0  0  0  0  0  0  0  0
   -4.3354   19.9853  -23.5150 C   0  0  0  0  0  0  0  0  0  0  0  0
   -6.3887   18.7853  -24.2077 C   0  0  0  0  0  0  0  0  0  0  0  0
   -6.0455   18.4478  -15.5471 C   0  0  0  0  0  0  0  0  0  0  0  0
   -7.0119   17.6600  -14.9190 C   0  0  0  0  0  0  0  0  0  0  0  0
   -8.2252   17.4047  -15.5612 C   0  0  0  0  0  0  0  0  0  0  0  0
   -9.2008   16.6292  -14.9409 C   0  0  0  0  0  0  0  0  0  0  0  0
   -8.9481   16.1179  -13.6736 C   0  0  0  0  0  0  0  0  0  0  0  0
   -7.7464   16.3707  -13.0232 C   0  0  0  0  0  0  0  0  0  0  0  0
   -6.7753   17.1485  -13.6443 C   0  0  0  0  0  0  0  0  0  0  0  0
    2.9201   19.8858  -21.7476 C   0  0  0  0  0  0  0  0  0  0  0  0
    2.9126   18.4958  -21.6553 C   0  0  0  0  0  0  0  0  0  0  0  0
    4.0903   17.7820  -21.8445 C   0  0  0  0  0  0  0  0  0  0  0  0
    5.2668   18.4704  -22.1194 C   0  0  0  0  0  0  0  0  0  0  0  0
    5.2779   19.8626  -22.2030 C   0  0  0  0  0  0  0  0  0  0  0  0
   -5.2151   18.8135  -23.5858 N   0  0  0  0  0  0  0  0  0  0  0  0
   -7.1302   17.6681  -24.1363 N   0  0  0  0  0  0  0  0  0  0  0  0
   -6.8239   19.8711  -24.8655 N   0  0  0  0  0  0  0  0  0  0  0  0
   -4.9620   17.6890  -16.1150 O   0  0  0  0  0  0  0  0  0  0  0  0
    1.2927   20.4271  -24.1354 O   0  0  0  0  0  0  0  0  0  0  0  0
   11.9358   12.9539   13.8205 N   0  0  0  0  0  0  0  0  0  0  0  0
   10.4658   12.8716   13.8261 C   0  0  0  0  0  0  0  0  0  0  0  0
   11.2761   19.3267    7.8380 C   0  0  0  0  0  0  0  0  0  0  0  0
   10.1375   20.0904    7.1157 C   0  0  0  0  0  0  0  0  0  0  0  0
    6.8153   15.4142   12.2674 C   0  0  0  0  0  0  0  0  0  0  0  0
    8.1588   15.0352   11.6287 C   0  0  0  0  0  0  0  0  0  0  0  0
    8.8299   16.3243   11.1376 C   0  0  0  0  0  0  0  0  0  0  0  0
   12.1852   17.7653   11.9335 C   0  0  0  0  0  0  0  0  0  0  0  0
   10.7943   17.8223   11.2993 C   0  0  0  0  0  0  0  0  0  0  0  0
   11.0398   17.9261    9.7960 C   0  0  0  0  0  0  0  0  0  0  0  0
   12.6433   13.8899   13.1719 C   0  0  0  0  0  0  0  0  0  0  0  0
   12.1668   18.1783   13.3870 C   0  0  0  0  0  0  0  0  0  0  0  0
    9.8008   13.3590   12.5205 C   0  0  0  0  0  0  0  0  0  0  0  0
   10.0279   12.8082   11.4462 O   0  0  0  0  0  0  0  0  0  0  0  0
   11.0025   19.1783    9.2825 N   0  0  0  0  0  0  0  0  0  0  0  0
    8.9535   14.3832   12.6855 N   0  0  0  0  0  0  0  0  0  0  0  0
   10.0370   16.6001   11.6581 N   0  0  0  0  0  0  0  0  0  0  0  0
    8.2680   17.0227   10.2952 O   0  0  0  0  0  0  0  0  0  0  0  0
   11.2996   16.9175    9.1248 O   0  0  0  0  0  0  0  0  0  0  0  0
   12.1548   14.8304   12.5571 O   0  0  0  0  0  0  0  0  0  0  0  0
   10.0978   11.3960   14.0496 C   0  0  0  0  0  0  0  0  0  0  0  0
   13.4483   18.0271   13.9386 C   0  0  0  0  0  0  0  0  0  0  0  0
   13.6198   18.9793   14.8688 C   0  0  0  0  0  0  0  0  0  0  0  0
   11.9058   19.6586   13.5613 C   0  0  0  0  0  0  0  0  0  0  0  0
   14.4078   17.1325   13.7019 C   0  0  0  0  0  0  0  0  0  0  0  0
   15.6064   17.1703   14.4053 C   0  0  0  0  0  0  0  0  0  0  0  0
   15.7880   18.1586   15.3593 C   0  0  0  0  0  0  0  0  0  0  0  0
   14.7467   19.0480   15.5789 C   0  0  0  0  0  0  0  0  0  0  0  0
   12.5287   19.7507   14.8971 N   0  0  0  0  0  0  0  0  0  0  0  0
   10.3287   11.0527   15.4018 C   0  0  0  0  0  0  0  0  0  0  0  0
   11.3322   10.1437   15.7261 C   0  0  0  0  0  0  0  0  0  0  0  0
    9.5793   11.6235   16.4189 C   0  0  0  0  0  0  0  0  0  0  0  0
   16.2160   19.8015    8.8187 C   0  0  0  0  0  0  0  0  0  0  0  0
   11.5825    9.8066   17.0598 C   0  0  0  0  0  0  0  0  0  0  0  0
    9.8136   11.2803   17.7450 C   0  0  0  0  0  0  0  0  0  0  0  0
   10.8179   10.3779   18.0663 C   0  0  0  0  0  0  0  0  0  0  0  0
   12.8493   20.1968    7.5464 P   0  0  0  0  0  0  0  0  0  0  0  0
   13.8646   19.7080    8.6756 O   0  0  0  0  0  0  0  0  0  0  0  0
   14.1605   13.7451   13.2740 C   0  0  0  0  0  0  0  0  0  0  0  0
   14.7092   13.4156   11.8815 C   0  0  0  0  0  0  0  0  0  0  0  0
    8.9236   19.2254    7.4605 C   0  0  0  0  0  0  0  0  0  0  0  0
    7.8754   18.8464    6.4322 C   0  0  0  0  0  0  0  0  0  0  0  0
    5.4701   19.6812    6.2101 C   0  0  0  0  0  0  0  0  0  0  0  0
    4.7945   14.3587   13.0074 C   0  0  0  0  0  0  0  0  0  0  0  0
    3.9849   13.2788   12.6664 C   0  0  0  0  0  0  0  0  0  0  0  0
    3.1131   12.7201   13.5938 C   0  0  0  0  0  0  0  0  0  0  0  0
    2.3207   11.6372   13.2244 C   0  0  0  0  0  0  0  0  0  0  0  0
    2.3972   11.1116   11.9364 C   0  0  0  0  0  0  0  0  0  0  0  0
    3.2700   11.6684   11.0096 C   0  0  0  0  0  0  0  0  0  0  0  0
    4.0638   12.7506   11.3812 C   0  0  0  0  0  0  0  0  0  0  0  0
   15.0514   19.0414    8.7081 C   0  0  0  0  0  0  0  0  0  0  0  0
   15.1263   17.6518    8.7304 C   0  0  0  0  0  0  0  0  0  0  0  0
   16.3802   17.0470    8.8237 C   0  0  0  0  0  0  0  0  0  0  0  0
   17.5432   17.8105    8.9135 C   0  0  0  0  0  0  0  0  0  0  0  0
   17.4649   19.1978    8.9149 C   0  0  0  0  0  0  0  0  0  0  0  0
    6.7938   19.8115    6.4856 N   0  0  0  0  0  0  0  0  0  0  0  0
    4.7528   20.8026    6.2502 N   0  0  0  0  0  0  0  0  0  0  0  0
    4.8267   18.5217    5.9486 N   0  0  0  0  0  0  0  0  0  0  0  0
    5.9658   14.2706   12.2017 O   0  0  0  0  0  0  0  0  0  0  0  0
   13.2871   20.1689    6.1224 O   0  0  0  0  0  0  0  0  0  0  0  0
  1  2  1  0  0  0  0
  1 11  1  0  0  0  0
  2 13  1  0  0  0  0
  2 21  1  0  0  0  0
  3  4  1  0  0  0  0
  3 15  1  0  0  0  0
  3 37  1  0  0  0  0
  4 39  1  0  0  0  0
  5  6  1  0  0  0  0
  5 57  1  0  0  0  0
  6  7  1  0  0  0  0
  6 16  1  0  0  0  0
  7 17  1  0  0  0  0
  7 18  2  0  0  0  0
  8  9  1  0  0  0  0
  8 12  1  0  0  0  0
  9 10  1  0  0  0  0
  9 17  1  0  0  0  0
 10 15  1  0  0  0  0
 10 19  2  0  0  0  0
 11 20  1  0  0  0  0
 12 22  1  0  0  0  0
 12 24  1  0  0  0  0
 13 14  2  0  0  0  0
 13 16  1  0  0  0  0
 21 30  1  0  0  0  0
 22 23  4  0  0  0  0
 22 25  4  0  0  0  0
 23 28  4  0  0  0  0
 23 29  1  0  0  0  0
 24 29  1  0  0  0  0
 25 26  4  0  0  0  0
 26 27  4  0  0  0  0
 27 28  4  0  0  0  0
 30 31  4  0  0  0  0
 30 32  4  0  0  0  0
 31 34  4  0  0  0  0
 32 35  4  0  0  0  0
 34 36  4  0  0  0  0
 35 36  4  0  0  0  0
 37 58  2  0  0  0  0
 37 38  1  0  0  0  0
 39 40  1  0  0  0  0
 40 54  1  0  0  0  0
 41 54  1  0  0  0  0
 41 55  4  0  0  0  0
 41 56  4  0  0  0  0
 42 43  1  0  0  0  0
 42 57  1  0  0  0  0
 43 44  4  0  0  0  0
 43 48  4  0  0  0  0
 44 45  4  0  0  0  0
 45 46  4  0  0  0  0
 46 47  4  0  0  0  0
 47 48  4  0  0  0  0
 33 49  4  0  0  0  0
 38 49  1  0  0  0  0
 49 50  4  0  0  0  0
 50 51  4  0  0  0  0
 51 52  4  0  0  0  0
 52 53  4  0  0  0  0
 33 53  4  0  0  0  0
 59 60  1  0  0  0  0
 59 69  1  0  0  0  0
 60 71  1  0  0  0  0
 60 79  1  0  0  0  0
 61 62  1  0  0  0  0
 61 73  1  0  0  0  0
 61 95  1  0  0  0  0
 62 99  1  0  0  0  0
 63 64  1  0  0  0  0
 63117  1  0  0  0  0
 64 65  1  0  0  0  0
 64 74  1  0  0  0  0
 65 75  1  0  0  0  0
 65 76  2  0  0  0  0
 66 67  1  0  0  0  0
 66 70  1  0  0  0  0
 67 68  1  0  0  0  0
 67 75  1  0  0  0  0
 68 73  1  0  0  0  0
 68 77  2  0  0  0  0
 69 78  2  0  0  0  0
 69 97  1  0  0  0  0
 70 80  1  0  0  0  0
 70 82  1  0  0  0  0
 71 72  2  0  0  0  0
 71 74  1  0  0  0  0
 79 88  1  0  0  0  0
 80 81  4  0  0  0  0
 80 83  4  0  0  0  0
 81 86  4  0  0  0  0
 81 87  1  0  0  0  0
 82 87  1  0  0  0  0
 83 84  4  0  0  0  0
 84 85  4  0  0  0  0
 85 86  4  0  0  0  0
 88 89  4  0  0  0  0
 88 90  4  0  0  0  0
 89 92  4  0  0  0  0
 90 93  4  0  0  0  0
 92 94  4  0  0  0  0
 93 94  4  0  0  0  0
 95118  2  0  0  0  0
 95 96  1  0  0  0  0
 97 98  1  0  0  0  0
 99100  1  0  0  0  0
100114  1  0  0  0  0
101114  1  0  0  0  0
101115  4  0  0  0  0
101116  4  0  0  0  0
102103  1  0  0  0  0
102117  1  0  0  0  0
103104  4  0  0  0  0
103108  4  0  0  0  0
104105  4  0  0  0  0
105106  4  0  0  0  0
106107  4  0  0  0  0
107108  4  0  0  0  0
 91109  4  0  0  0  0
 96109  1  0  0  0  0
109110  4  0  0  0  0
110111  4  0  0  0  0
111112  4  0  0  0  0
112113  4  0  0  0  0
 91113  4  0  0  0  0
M  END
$$$$
