7SD9
  PyMOL2.5          3D                             0

 31 33  0  0  0  0  0  0  0  0999 V2000
   10.2105  -30.6707   -9.1581 C   0  0  0  0  0  0  0  0  0  0  0  0
    9.0571  -29.7016  -10.8483 N   0  0  0  0  0  0  0  0  0  0  0  0
   10.2647  -29.2454   -9.0999 C   0  0  0  0  0  0  0  0  0  0  0  0
    9.5546  -28.6698  -10.1348 C   0  0  0  0  0  0  0  0  0  0  0  0
    9.4819  -27.2910  -10.2711 C   0  0  0  0  0  0  0  0  0  0  0  0
   10.1377  -26.4883   -9.3330 C   0  0  0  0  0  0  0  0  0  0  0  0
   10.8510  -27.0699   -8.2850 C   0  0  0  0  0  0  0  0  0  0  0  0
   10.9232  -28.4557   -8.1595 C   0  0  0  0  0  0  0  0  0  0  0  0
    5.6798  -37.3499  -11.2482 C   0  0  0  0  0  0  0  0  0  0  0  0
   11.6949  -35.5955  -11.2996 C   0  0  0  0  0  0  0  0  0  0  0  0
    4.4418  -37.7730  -10.6580 O   0  0  0  0  0  0  0  0  0  0  0  0
   12.4138  -34.2551  -11.2224 C   0  0  0  0  0  0  0  0  0  0  0  0
   11.4430  -35.9177  -12.7706 C   0  0  0  0  0  0  0  0  0  0  0  0
    9.0514  -32.1942  -10.8332 C   0  0  0  0  0  0  0  0  0  0  0  0
   12.5975  -36.6562  -10.6668 C   0  0  0  0  0  0  0  0  0  0  0  0
    9.6343  -33.2828  -10.3560 N   0  0  0  0  0  0  0  0  0  0  0  0
    9.3818  -34.5580  -10.9910 C   0  0  0  0  0  0  0  0  0  0  0  0
    8.0069  -34.9639  -10.5754 C   0  0  0  0  0  0  0  0  0  0  0  0
    7.1951  -35.4857  -11.4880 N   0  0  0  0  0  0  0  0  0  0  0  0
    5.8530  -35.8434  -11.0520 C   0  0  0  0  0  0  0  0  0  0  0  0
    4.8020  -35.0395  -11.8378 C   0  0  0  0  0  0  0  0  0  0  0  0
    4.8425  -33.5532  -11.4826 C   0  0  0  0  0  0  0  0  0  0  0  0
    4.4177  -33.2853  -10.0429 C   0  0  0  0  0  0  0  0  0  0  0  0
    3.7129  -31.9275  -10.0923 C   0  0  0  0  0  0  0  0  0  0  0  0
    3.2321  -31.8231  -11.4627 N   0  0  0  0  0  0  0  0  0  0  0  0
    3.8350  -32.7371  -12.2402 C   0  0  0  0  0  0  0  0  0  0  0  0
    3.6185  -32.9280  -13.4159 O   0  0  0  0  0  0  0  0  0  0  0  0
    9.4281  -30.8770  -10.2874 C   0  0  0  0  0  0  0  0  0  0  0  0
    8.2231  -32.2289  -11.7197 O   0  0  0  0  0  0  0  0  0  0  0  0
   10.3886  -35.5902  -10.4990 C   0  0  0  0  0  0  0  0  0  0  0  0
    7.6660  -34.7968   -9.4166 O   0  0  0  0  0  0  0  0  0  0  0  0
  1  3  4  0  0  0  0
  1 28  4  0  0  0  0
  3  4  4  0  0  0  0
  3  8  4  0  0  0  0
  2  4  4  0  0  0  0
  4  5  4  0  0  0  0
  5  6  4  0  0  0  0
  6  7  4  0  0  0  0
  7  8  4  0  0  0  0
  9 11  1  0  0  0  0
 10 12  1  0  0  0  0
 10 13  1  0  0  0  0
 14 16  1  0  0  0  0
 14 28  1  0  0  0  0
 14 29  2  0  0  0  0
 10 15  1  0  0  0  0
 16 17  1  0  0  0  0
 17 18  1  0  0  0  0
 17 30  1  0  0  0  0
 18 19  1  0  0  0  0
 18 31  2  0  0  0  0
  9 20  1  0  0  0  0
 19 20  1  0  0  0  0
 20 21  1  0  0  0  0
 21 22  1  0  0  0  0
 22 23  1  0  0  0  0
 22 26  1  0  0  0  0
 23 24  1  0  0  0  0
 24 25  1  0  0  0  0
 25 26  1  0  0  0  0
 26 27  2  0  0  0  0
  2 28  4  0  0  0  0
 10 30  1  0  0  0  0
M  END
$$$$
