7VR4
  PyMOL2.5          3D                             0

 48 52  0  0  0  0  0  0  0  0999 V2000
   45.2066  -31.8125   21.2838 P   0  0  0  0  0  0  0  0  0  0  0  0
   38.9189  -29.2702   24.0467 P   0  0  0  0  0  0  0  0  0  0  0  0
   37.8427  -27.7555   26.1809 P   0  0  0  0  0  0  0  0  0  0  0  0
   43.7436  -31.9936   24.3766 C   0  0  0  0  0  0  0  0  0  0  0  0
   39.0793  -26.8707   31.0470 C   0  0  0  0  0  0  0  0  0  0  0  0
   48.0498  -33.3502   26.8210 N   0  0  0  0  0  0  0  0  0  0  0  0
   37.8567  -26.1697   31.3971 N   0  0  0  0  0  0  0  0  0  0  0  0
   40.2235  -28.5048   23.8957 O   0  5  0  0  0  0  0  0  0  0  0  0
   38.2242  -26.6123   25.2899 O   0  5  0  0  0  0  0  0  0  0  0  0
   46.0764  -32.6621   22.1859 O   0  0  0  0  0  0  0  0  0  0  0  0
   47.7667  -32.2160   26.1646 C   0  0  0  0  0  0  0  0  0  0  0  0
   43.3226  -32.4951   23.0048 C   0  0  0  0  0  0  0  0  0  0  0  0
   38.8756  -28.3294   30.6494 C   0  0  0  0  0  0  0  0  0  0  0  0
   37.8053  -25.4852   32.5434 C   0  0  0  0  0  0  0  0  0  0  0  0
   37.8488  -28.8921   23.0522 O   0  0  0  0  0  0  0  0  0  0  0  0
   43.8052  -31.5624   22.0489 O   0  0  0  0  0  0  0  0  0  0  0  0
   38.8737  -29.1894   31.7805 O   0  0  0  0  0  0  0  0  0  0  0  0
   36.3602  -27.9117   26.4336 O   0  0  0  0  0  0  0  0  0  0  0  0
   44.8972  -32.5120   19.9822 O   0  5  0  0  0  0  0  0  0  0  0  0
   41.8164  -32.4379   23.0455 C   0  0  0  0  0  0  0  0  0  0  0  0
   40.1170  -28.5728   29.8123 C   0  0  0  0  0  0  0  0  0  0  0  0
   36.6665  -24.7921   32.9203 C   0  0  0  0  0  0  0  0  0  0  0  0
   46.5883  -32.0106   25.5677 N   0  0  0  0  0  0  0  0  0  0  0  0
   38.3829  -29.1190   25.5507 O   0  0  0  0  0  0  0  0  0  0  0  0
   41.2640  -32.0458   21.7893 O   0  0  0  0  0  0  0  0  0  0  0  0
   41.2393  -28.8019   30.6794 O   0  0  0  0  0  0  0  0  0  0  0  0
   45.8152  -30.4469   21.0704 O   0  0  0  0  0  0  0  0  0  0  0  0
   45.6261  -32.9663   25.6253 C   0  0  0  0  0  0  0  0  0  0  0  0
   41.5550  -31.3941   24.1184 C   0  0  0  0  0  0  0  0  0  0  0  0
   40.3741  -27.2369   29.1322 C   0  0  0  0  0  0  0  0  0  0  0  0
   35.5548  -24.7791   32.0922 C   0  0  0  0  0  0  0  0  0  0  0  0
   42.5725  -31.6501   25.0841 O   0  0  0  0  0  0  0  0  0  0  0  0
   39.5969  -26.2714   29.8591 O   0  0  0  0  0  0  0  0  0  0  0  0
   45.8666  -34.2303   26.3263 C   0  0  0  0  0  0  0  0  0  0  0  0
   40.1659  -31.4902   24.7515 C   0  0  0  0  0  0  0  0  0  0  0  0
   39.9688  -27.2467   27.6622 C   0  0  0  0  0  0  0  0  0  0  0  0
   35.5773  -25.4660   30.8881 C   0  0  0  0  0  0  0  0  0  0  0  0
   39.2177  -30.8478   23.8977 O   0  0  0  0  0  0  0  0  0  0  0  0
   38.6026  -27.6475   27.5900 O   0  0  0  0  0  0  0  0  0  0  0  0
   47.1903  -34.3825   26.9468 C   0  0  0  0  0  0  0  0  0  0  0  0
   36.7473  -26.2189   30.4475 C   0  0  0  0  0  0  0  0  0  0  0  0
   47.5067  -35.5164   27.6148 N   0  0  0  0  0  0  0  0  0  0  0  0
   36.6371  -24.0267   34.2173 C   0  0  0  0  0  0  0  0  0  0  0  0
   44.7519  -34.9818   26.2183 N   0  0  0  0  0  0  0  0  0  0  0  0
   37.8057  -23.7357   34.7875 N   0  0  0  0  0  0  0  0  0  0  0  0
   35.5674  -23.6635   34.7080 O   0  0  0  0  0  0  0  0  0  0  0  0
   43.8595  -34.2528   25.4968 C   0  0  0  0  0  0  0  0  0  0  0  0
   44.3899  -33.0605   25.1514 N   0  0  0  0  0  0  0  0  0  0  0  0
  1 10  1  0  0  0  0
  1 19  1  0  0  0  0
  1 27  2  0  0  0  0
  2  8  1  0  0  0  0
  2 15  2  0  0  0  0
  2 24  1  0  0  0  0
  2 38  1  0  0  0  0
  3  9  1  0  0  0  0
  3 18  2  0  0  0  0
  3 39  1  0  0  0  0
  4 48  1  0  0  0  0
  5  7  1  0  0  0  0
  6 11  4  0  0  0  0
  7 14  4  0  0  0  0
  7 41  4  0  0  0  0
 11 23  4  0  0  0  0
  4 12  1  0  0  0  0
 12 16  1  0  0  0  0
  5 13  1  0  0  0  0
 13 17  1  0  0  0  0
 14 22  4  0  0  0  0
  1 16  1  0  0  0  0
 12 20  1  0  0  0  0
 20 25  1  0  0  0  0
 13 21  1  0  0  0  0
 21 26  1  0  0  0  0
 22 31  4  0  0  0  0
 22 43  1  0  0  0  0
 23 28  4  0  0  0  0
  3 24  1  0  0  0  0
 20 29  1  0  0  0  0
 29 32  1  0  0  0  0
 21 30  1  0  0  0  0
 30 33  1  0  0  0  0
 31 37  4  0  0  0  0
  4 32  1  0  0  0  0
  5 33  1  0  0  0  0
 28 34  4  0  0  0  0
 34 40  4  0  0  0  0
 29 35  1  0  0  0  0
 30 36  1  0  0  0  0
 37 41  4  0  0  0  0
 35 38  1  0  0  0  0
 36 39  1  0  0  0  0
  6 40  4  0  0  0  0
 40 42  1  0  0  0  0
 43 45  1  0  0  0  0
 43 46  2  0  0  0  0
 34 44  4  0  0  0  0
 44 47  4  0  0  0  0
 28 48  4  0  0  0  0
 47 48  4  0  0  0  0
M  END
$$$$
