7ZOT
  PyMOL2.5          3D                             0

  7  6  0  0  0  0  0  0  0  0999 V2000
   -6.7789   51.6668   -0.8348 C   0  0  0  0  0  0  0  0  0  0  0  0
   -6.2923   51.4034   -2.1374 O   0  0  0  0  0  0  0  0  0  0  0  0
   -6.0524   52.7809   -0.1705 C   0  0  0  0  0  0  0  0  0  0  0  0
   -6.7538   53.2027    0.9942 O   0  0  0  0  0  0  0  0  0  0  0  0
   -7.8762   54.0328    0.7122 C   0  0  0  0  0  0  0  0  0  0  0  0
   -7.9895   55.1078    1.7357 C   0  0  0  0  0  0  0  0  0  0  0  0
   -9.2710   55.7107    1.7397 O   0  0  0  0  0  0  0  0  0  0  0  0
  1  2  1  0  0  0  0
  1  3  1  0  0  0  0
  3  4  1  0  0  0  0
  4  5  1  0  0  0  0
  5  6  1  0  0  0  0
  6  7  1  0  0  0  0
M  END
$$$$
