8DG6
  PyMOL2.5          3D                             0

 32 35  0  0  0  0  0  0  0  0999 V2000
  -16.1871   -0.5872   29.3858 Cl  0  0  0  0  0  0  0  0  0  0  0  0
  -14.5986   -1.0018   28.8301 C   0  0  0  0  0  0  0  0  0  0  0  0
  -11.7126    1.8239   26.9638 N   0  0  0  0  0  0  0  0  0  0  0  0
   -9.6756    1.4371   27.8739 O   0  0  0  0  0  0  0  0  0  0  0  0
  -13.9396   -0.1392   27.9655 C   0  0  0  0  0  0  0  0  0  0  0  0
   -9.3870    4.0597   28.6527 N   0  0  0  0  0  0  0  0  0  0  0  0
  -10.5784    3.1727   30.3618 O   0  0  0  0  0  0  0  0  0  0  0  0
  -12.6293   -0.4236   27.5349 C   0  0  0  0  0  0  0  0  0  0  0  0
   -8.9174    4.2674   32.3253 N   0  0  0  0  0  0  0  0  0  0  0  0
  -10.5218    5.0612   36.4104 O   0  0  0  0  0  0  0  0  0  0  0  0
  -11.9138    0.4465   26.5280 C   0  0  0  0  0  0  0  0  0  0  0  0
   -9.4457    5.2803   33.0677 N   0  0  0  0  0  0  0  0  0  0  0  0
  -10.5580    2.2197   27.5002 C   0  0  0  0  0  0  0  0  0  0  0  0
  -10.2371    6.9293   35.1422 N   0  0  0  0  0  0  0  0  0  0  0  0
  -10.3700    3.7337   27.6270 C   0  0  0  0  0  0  0  0  0  0  0  0
   -9.5934    3.8263   29.9635 C   0  0  0  0  0  0  0  0  0  0  0  0
   -8.6004    4.4598   30.9251 C   0  0  0  0  0  0  0  0  0  0  0  0
   -9.6010    4.8019   34.3015 C   0  0  0  0  0  0  0  0  0  0  0  0
  -10.1763    5.6126   35.3707 C   0  0  0  0  0  0  0  0  0  0  0  0
   -9.1318    3.4631   34.3920 C   0  0  0  0  0  0  0  0  0  0  0  0
   -8.6712    3.1621   33.1000 C   0  0  0  0  0  0  0  0  0  0  0  0
   -8.1071    1.9101   32.7779 C   0  0  0  0  0  0  0  0  0  0  0  0
   -8.0549    0.9680   33.7917 C   0  0  0  0  0  0  0  0  0  0  0  0
   -8.4950    1.2623   35.0825 C   0  0  0  0  0  0  0  0  0  0  0  0
   -9.0177    2.4994   35.4060 C   0  0  0  0  0  0  0  0  0  0  0  0
   -8.2138    4.7414   28.0728 C   0  0  0  0  0  0  0  0  0  0  0  0
   -8.8440    5.4068   26.8599 C   0  0  0  0  0  0  0  0  0  0  0  0
   -9.7731    4.3612   26.3559 C   0  0  0  0  0  0  0  0  0  0  0  0
  -12.0219   -1.6059   27.9865 C   0  0  0  0  0  0  0  0  0  0  0  0
  -12.6816   -2.4428   28.8794 C   0  0  0  0  0  0  0  0  0  0  0  0
  -13.9626   -2.1356   29.3031 C   0  0  0  0  0  0  0  0  0  0  0  0
  -14.5859    0.9771   27.5247 F   0  0  0  0  0  0  0  0  0  0  0  0
  1  2  1  0  0  0  0
  2 31  4  0  0  0  0
  2  5  4  0  0  0  0
  5  8  4  0  0  0  0
  5 32  1  0  0  0  0
  6 16  1  0  0  0  0
  6 26  1  0  0  0  0
  8 11  1  0  0  0  0
  8 29  4  0  0  0  0
  9 12  4  0  0  0  0
  9 21  4  0  0  0  0
  3 11  1  0  0  0  0
 12 18  4  0  0  0  0
  3 13  1  0  0  0  0
  4 13  2  0  0  0  0
 13 15  1  0  0  0  0
  6 15  1  0  0  0  0
 15 28  1  0  0  0  0
  7 16  2  0  0  0  0
 16 17  1  0  0  0  0
  9 17  1  0  0  0  0
 18 20  4  0  0  0  0
 10 19  2  0  0  0  0
 14 19  1  0  0  0  0
 18 19  1  0  0  0  0
 20 21  4  0  0  0  0
 20 25  4  0  0  0  0
 21 22  4  0  0  0  0
 22 23  4  0  0  0  0
 23 24  4  0  0  0  0
 24 25  4  0  0  0  0
 26 27  1  0  0  0  0
 27 28  1  0  0  0  0
 29 30  4  0  0  0  0
 30 31  4  0  0  0  0
M  END
$$$$
