8DUD
  PyMOL2.5          3D                             0

 37 42  0  0  0  0  0  0  0  0999 V2000
   28.7918  -15.8313  -23.9176 C   0  0  0  0  0  0  0  0  0  0  0  0
   32.1021  -15.8166  -22.0110 N   0  0  0  0  0  0  0  0  0  0  0  0
   25.8075  -14.0709  -22.5484 O   0  0  0  0  0  0  0  0  0  0  0  0
   27.5463  -15.4041  -23.7920 C   0  0  0  0  0  0  0  0  0  0  0  0
   33.4003  -13.0333  -32.4068 N   0  0  0  0  0  0  0  0  0  0  0  0
   33.2067  -17.7333  -22.7017 O   0  0  0  0  0  0  0  0  0  0  0  0
   27.1229  -14.4753  -22.6528 C   0  0  0  0  0  0  0  0  0  0  0  0
   33.5843  -13.6403  -27.8081 O   0  0  0  0  0  0  0  0  0  0  0  0
   28.0712  -14.0937  -21.7999 C   0  0  0  0  0  0  0  0  0  0  0  0
   29.5164  -14.5440  -21.9881 C   0  0  0  0  0  0  0  0  0  0  0  0
   29.8681  -15.3780  -22.9631 C   0  0  0  0  0  0  0  0  0  0  0  0
   30.6210  -14.0734  -20.9028 C   0  0  0  0  0  0  0  0  0  0  0  0
   32.0259  -14.7449  -21.1186 C   0  0  0  0  0  0  0  0  0  0  0  0
   31.2754  -15.8756  -23.1189 C   0  0  0  0  0  0  0  0  0  0  0  0
   33.1390  -16.8662  -21.9274 C   0  0  0  0  0  0  0  0  0  0  0  0
   34.0963  -16.9527  -20.7066 C   0  0  0  0  0  0  0  0  0  0  0  0
   35.3788  -17.0674  -20.8705 C   0  0  0  0  0  0  0  0  0  0  0  0
   36.2130  -17.2514  -19.6201 C   0  0  0  0  0  0  0  0  0  0  0  0
   35.6329  -17.2653  -18.4552 C   0  0  0  0  0  0  0  0  0  0  0  0
   34.1275  -17.1616  -18.2914 C   0  0  0  0  0  0  0  0  0  0  0  0
   33.3988  -17.0257  -19.3557 C   0  0  0  0  0  0  0  0  0  0  0  0
   31.9917  -15.3963  -24.3792 C   0  0  0  0  0  0  0  0  0  0  0  0
   32.8373  -16.1367  -25.0550 C   0  0  0  0  0  0  0  0  0  0  0  0
   33.4460  -15.5593  -26.3294 C   0  0  0  0  0  0  0  0  0  0  0  0
   33.0984  -14.3459  -26.6804 C   0  0  0  0  0  0  0  0  0  0  0  0
   32.1421  -13.5405  -25.8445 C   0  0  0  0  0  0  0  0  0  0  0  0
   31.6062  -14.0022  -24.7678 C   0  0  0  0  0  0  0  0  0  0  0  0
   33.0575  -14.2953  -20.0834 C   0  0  0  0  0  0  0  0  0  0  0  0
   32.7817  -13.3996  -21.2010 C   0  0  0  0  0  0  0  0  0  0  0  0
   33.5918  -14.2933  -29.0648 C   0  0  0  0  0  0  0  0  0  0  0  0
   33.1829  -13.2351  -30.1835 C   0  0  0  0  0  0  0  0  0  0  0  0
   31.9864  -13.7340  -30.7188 C   0  0  0  0  0  0  0  0  0  0  0  0
   32.0174  -12.9848  -32.0470 C   0  0  0  0  0  0  0  0  0  0  0  0
   34.1661  -12.9664  -31.2991 C   0  0  0  0  0  0  0  0  0  0  0  0
   33.7619  -12.3430  -33.3659 C   0  0  0  0  0  0  0  0  0  0  0  0
   32.6216  -11.7997  -34.2883 C   0  0  0  0  0  0  0  0  0  0  0  0
   32.9723  -11.9412  -35.7631 C   0  0  0  0  0  0  0  0  0  0  0  0
  1  4  4  0  0  0  0
  2 13  1  0  0  0  0
  2 14  1  0  0  0  0
  2 15  1  0  0  0  0
  4  7  4  0  0  0  0
  3  7  1  0  0  0  0
  7  9  4  0  0  0  0
  9 10  4  0  0  0  0
 10 11  4  0  0  0  0
 10 12  1  0  0  0  0
  1 11  4  0  0  0  0
 11 14  1  0  0  0  0
 12 13  1  0  0  0  0
 13 28  1  0  0  0  0
 13 29  1  0  0  0  0
  6 15  2  0  0  0  0
 15 16  1  0  0  0  0
 16 17  4  0  0  0  0
 16 21  4  0  0  0  0
 17 18  4  0  0  0  0
 18 19  4  0  0  0  0
 19 20  4  0  0  0  0
 20 21  4  0  0  0  0
 14 22  1  0  0  0  0
 22 23  4  0  0  0  0
 22 27  4  0  0  0  0
 23 24  4  0  0  0  0
  8 25  1  0  0  0  0
 24 25  4  0  0  0  0
 25 26  4  0  0  0  0
 26 27  4  0  0  0  0
 28 29  1  0  0  0  0
  8 30  1  0  0  0  0
 30 31  1  0  0  0  0
 31 32  1  0  0  0  0
 31 34  1  0  0  0  0
  5 33  1  0  0  0  0
 32 33  1  0  0  0  0
  5 34  1  0  0  0  0
  5 35  1  0  0  0  0
 35 36  1  0  0  0  0
 36 37  1  0  0  0  0
M  END
$$$$
