8DUS
  PyMOL2.5          3D                             0

198222  0  0  0  0  0  0  0  0999 V2000
    5.2064   77.4951   53.0842 C   0  0  0  0  0  0  0  0  0  0  0  0
    6.9408   78.2551   49.7859 N   0  0  0  0  0  0  0  0  0  0  0  0
    1.5773   76.9727   53.0209 O   0  0  0  0  0  0  0  0  0  0  0  0
    3.9815   77.3131   53.4933 C   0  0  0  0  0  0  0  0  0  0  0  0
    9.9355   70.6760   54.3338 N   0  0  0  0  0  0  0  0  0  0  0  0
    8.6029   79.7204   50.3153 O   0  0  0  0  0  0  0  0  0  0  0  0
    2.8225   77.1874   52.5304 C   0  0  0  0  0  0  0  0  0  0  0  0
    9.9017   72.9329   52.0285 O   0  0  0  0  0  0  0  0  0  0  0  0
    3.0574   77.3020   51.2530 C   0  0  0  0  0  0  0  0  0  0  0  0
    4.4794   77.5352   50.7937 C   0  0  0  0  0  0  0  0  0  0  0  0
    5.4944   77.6323   51.6175 C   0  0  0  0  0  0  0  0  0  0  0  0
    4.5674   77.6547   49.2427 C   0  0  0  0  0  0  0  0  0  0  0  0
    6.0855   77.7151   48.7798 C   0  0  0  0  0  0  0  0  0  0  0  0
    6.9086   77.8191   51.1894 C   0  0  0  0  0  0  0  0  0  0  0  0
    7.9780   79.3301   49.4543 C   0  0  0  0  0  0  0  0  0  0  0  0
    8.0490   80.0152   48.0369 C   0  0  0  0  0  0  0  0  0  0  0  0
    7.0654   80.7714   47.7891 C   0  0  0  0  0  0  0  0  0  0  0  0
    6.9842   81.5108   46.4686 C   0  0  0  0  0  0  0  0  0  0  0  0
    7.9333   81.3932   45.6111 C   0  0  0  0  0  0  0  0  0  0  0  0
    9.1025   80.5456   45.9062 C   0  0  0  0  0  0  0  0  0  0  0  0
    9.2035   79.9014   47.0244 C   0  0  0  0  0  0  0  0  0  0  0  0
    6.1739   77.5873   47.2566 C   0  0  0  0  0  0  0  0  0  0  0  0
    6.4798   76.4006   48.0525 C   0  0  0  0  0  0  0  0  0  0  0  0
    7.7181   76.5948   51.4133 C   0  0  0  0  0  0  0  0  0  0  0  0
    7.1526   75.4173   51.2474 C   0  0  0  0  0  0  0  0  0  0  0  0
    7.9733   74.1299   51.4828 C   0  0  0  0  0  0  0  0  0  0  0  0
    9.2293   74.1759   51.8760 C   0  0  0  0  0  0  0  0  0  0  0  0
    9.8679   75.5575   52.0741 C   0  0  0  0  0  0  0  0  0  0  0  0
    9.1903   76.6775   51.8758 C   0  0  0  0  0  0  0  0  0  0  0  0
   10.7623   72.6976   53.0834 C   0  0  0  0  0  0  0  0  0  0  0  0
    9.9096   72.1244   54.2480 C   0  0  0  0  0  0  0  0  0  0  0  0
    8.8391   70.1189   53.5747 C   0  0  0  0  0  0  0  0  0  0  0  0
    7.4900   70.2723   54.2778 C   0  0  0  0  0  0  0  0  0  0  0  0
   10.4151   63.0202   20.0251 C   0  0  0  0  0  0  0  0  0  0  0  0
   11.3107   62.4570   23.6914 N   0  0  0  0  0  0  0  0  0  0  0  0
    6.8076   62.6089   19.0498 O   0  0  0  0  0  0  0  0  0  0  0  0
    9.3185   62.9359   19.2836 C   0  0  0  0  0  0  0  0  0  0  0  0
   14.2744   70.4272   19.8177 N   0  0  0  0  0  0  0  0  0  0  0  0
   13.4215   61.4055   23.4849 O   0  0  0  0  0  0  0  0  0  0  0  0
    7.9353   62.6814   19.8897 C   0  0  0  0  0  0  0  0  0  0  0  0
   13.7771   68.3975   22.1521 O   0  0  0  0  0  0  0  0  0  0  0  0
    7.8212   62.5280   21.2083 C   0  0  0  0  0  0  0  0  0  0  0  0
    9.1011   62.6552   22.0528 C   0  0  0  0  0  0  0  0  0  0  0  0
   10.2993   62.8929   21.5393 C   0  0  0  0  0  0  0  0  0  0  0  0
    8.7842   62.4753   23.5891 C   0  0  0  0  0  0  0  0  0  0  0  0
   10.0941   62.7055   24.4548 C   0  0  0  0  0  0  0  0  0  0  0  0
   11.5618   63.0323   22.3518 C   0  0  0  0  0  0  0  0  0  0  0  0
   12.4752   61.5400   24.1981 C   0  0  0  0  0  0  0  0  0  0  0  0
   12.3762   60.7619   25.5619 C   0  0  0  0  0  0  0  0  0  0  0  0
   11.6431   59.6961   25.5514 C   0  0  0  0  0  0  0  0  0  0  0  0
   11.4622   58.8262   26.8283 C   0  0  0  0  0  0  0  0  0  0  0  0
   12.0831   59.2173   27.9247 C   0  0  0  0  0  0  0  0  0  0  0  0
   12.9541   60.4688   27.9346 C   0  0  0  0  0  0  0  0  0  0  0  0
   13.1054   61.2145   26.8527 C   0  0  0  0  0  0  0  0  0  0  0  0
    9.7929   63.8687   25.4378 C   0  0  0  0  0  0  0  0  0  0  0  0
    9.8597   62.4844   25.9894 C   0  0  0  0  0  0  0  0  0  0  0  0
   12.1154   64.4577   22.3322 C   0  0  0  0  0  0  0  0  0  0  0  0
   13.4321   64.6495   22.1502 C   0  0  0  0  0  0  0  0  0  0  0  0
   14.0382   66.0601   22.0849 C   0  0  0  0  0  0  0  0  0  0  0  0
   13.2087   67.1211   22.2183 C   0  0  0  0  0  0  0  0  0  0  0  0
   11.7000   66.9306   22.4164 C   0  0  0  0  0  0  0  0  0  0  0  0
   11.1854   65.6892   22.4662 C   0  0  0  0  0  0  0  0  0  0  0  0
   14.7532   68.4259   21.1022 C   0  0  0  0  0  0  0  0  0  0  0  0
   15.1792   69.8741   20.8165 C   0  0  0  0  0  0  0  0  0  0  0  0
   13.0346   70.8486   20.4758 C   0  0  0  0  0  0  0  0  0  0  0  0
   11.8027   70.7721   19.5309 C   0  0  0  0  0  0  0  0  0  0  0  0
   11.3262   -9.6728   53.3172 C   0  0  0  0  0  0  0  0  0  0  0  0
   13.0641   -8.8435   49.9866 N   0  0  0  0  0  0  0  0  0  0  0  0
    7.6594  -10.1840   53.2015 O   0  0  0  0  0  0  0  0  0  0  0  0
   10.0828   -9.8725   53.7440 C   0  0  0  0  0  0  0  0  0  0  0  0
   15.9325  -16.1271   54.7779 N   0  0  0  0  0  0  0  0  0  0  0  0
   14.7776   -7.3432   50.5071 O   0  0  0  0  0  0  0  0  0  0  0  0
    8.9337   -9.9191   52.7370 C   0  0  0  0  0  0  0  0  0  0  0  0
   16.5158  -13.7336   52.4286 O   0  0  0  0  0  0  0  0  0  0  0  0
    9.1376   -9.7304   51.4418 C   0  0  0  0  0  0  0  0  0  0  0  0
   10.5678   -9.5040   50.9934 C   0  0  0  0  0  0  0  0  0  0  0  0
   11.5882   -9.4635   51.8391 C   0  0  0  0  0  0  0  0  0  0  0  0
   10.6863   -9.3081   49.4240 C   0  0  0  0  0  0  0  0  0  0  0  0
   12.2000   -9.4021   48.9823 C   0  0  0  0  0  0  0  0  0  0  0  0
   13.0157   -9.2863   51.3995 C   0  0  0  0  0  0  0  0  0  0  0  0
   14.1089   -7.7627   49.6327 C   0  0  0  0  0  0  0  0  0  0  0  0
   14.1963   -7.1247   48.2048 C   0  0  0  0  0  0  0  0  0  0  0  0
   13.2073   -6.3336   47.9552 C   0  0  0  0  0  0  0  0  0  0  0  0
   13.1164   -5.5702   46.6233 C   0  0  0  0  0  0  0  0  0  0  0  0
   14.0973   -5.7418   45.7654 C   0  0  0  0  0  0  0  0  0  0  0  0
   15.2577   -6.6721   46.0621 C   0  0  0  0  0  0  0  0  0  0  0  0
   15.3522   -7.3176   47.2087 C   0  0  0  0  0  0  0  0  0  0  0  0
   12.2798   -9.5726   47.4341 C   0  0  0  0  0  0  0  0  0  0  0  0
   12.6070  -10.7430   48.3071 C   0  0  0  0  0  0  0  0  0  0  0  0
   13.7776  -10.5678   51.5779 C   0  0  0  0  0  0  0  0  0  0  0  0
   13.2835  -11.8215   51.4197 C   0  0  0  0  0  0  0  0  0  0  0  0
   14.2570  -13.0257   51.6916 C   0  0  0  0  0  0  0  0  0  0  0  0
   15.5137  -12.7696   52.1110 C   0  0  0  0  0  0  0  0  0  0  0  0
   16.0161  -11.3511   52.2956 C   0  0  0  0  0  0  0  0  0  0  0  0
   15.2130  -10.3364   52.0626 C   0  0  0  0  0  0  0  0  0  0  0  0
   16.0914  -15.0426   52.6472 C   0  0  0  0  0  0  0  0  0  0  0  0
   16.9090  -15.5308   53.8697 C   0  0  0  0  0  0  0  0  0  0  0  0
   15.0271  -17.0206   54.0071 C   0  0  0  0  0  0  0  0  0  0  0  0
   13.5738  -16.7690   54.4610 C   0  0  0  0  0  0  0  0  0  0  0  0
   16.5199  -24.1221   20.2627 C   0  0  0  0  0  0  0  0  0  0  0  0
   17.5050  -24.6203   23.9069 N   0  0  0  0  0  0  0  0  0  0  0  0
   12.9233  -24.5378   19.3675 O   0  0  0  0  0  0  0  0  0  0  0  0
   15.4196  -24.2263   19.5481 C   0  0  0  0  0  0  0  0  0  0  0  0
   20.3080  -16.6881   19.9853 N   0  0  0  0  0  0  0  0  0  0  0  0
   19.5823  -25.7571   23.7024 O   0  0  0  0  0  0  0  0  0  0  0  0
   14.0516  -24.4430   20.2100 C   0  0  0  0  0  0  0  0  0  0  0  0
   19.8773  -18.7426   22.3399 O   0  0  0  0  0  0  0  0  0  0  0  0
   13.9443  -24.5389   21.5414 C   0  0  0  0  0  0  0  0  0  0  0  0
   15.2412  -24.4229   22.3544 C   0  0  0  0  0  0  0  0  0  0  0  0
   16.4178  -24.2148   21.7843 C   0  0  0  0  0  0  0  0  0  0  0  0
   14.9758  -24.5331   23.9191 C   0  0  0  0  0  0  0  0  0  0  0  0
   16.3308  -24.3226   24.7256 C   0  0  0  0  0  0  0  0  0  0  0  0
   17.6968  -24.0743   22.5401 C   0  0  0  0  0  0  0  0  0  0  0  0
   18.6524  -25.5611   24.4157 C   0  0  0  0  0  0  0  0  0  0  0  0
   18.5905  -26.2644   25.8234 C   0  0  0  0  0  0  0  0  0  0  0  0
   19.3393  -25.9048   26.8020 C   0  0  0  0  0  0  0  0  0  0  0  0
   19.2245  -26.6694   28.1429 C   0  0  0  0  0  0  0  0  0  0  0  0
   18.3694  -27.6737   28.2564 C   0  0  0  0  0  0  0  0  0  0  0  0
   17.5074  -28.1038   27.0933 C   0  0  0  0  0  0  0  0  0  0  0  0
   17.6028  -27.4502   25.9532 C   0  0  0  0  0  0  0  0  0  0  0  0
   15.9099  -24.4433   26.2174 C   0  0  0  0  0  0  0  0  0  0  0  0
   16.4146  -23.1236   25.7320 C   0  0  0  0  0  0  0  0  0  0  0  0
   18.1926  -22.6450   22.5180 C   0  0  0  0  0  0  0  0  0  0  0  0
   17.3686  -21.5926   22.6604 C   0  0  0  0  0  0  0  0  0  0  0  0
   17.9716  -20.1642   22.6037 C   0  0  0  0  0  0  0  0  0  0  0  0
   19.2897  -20.0100   22.4135 C   0  0  0  0  0  0  0  0  0  0  0  0
   20.2321  -21.2045   22.2346 C   0  0  0  0  0  0  0  0  0  0  0  0
   19.7146  -22.4340   22.2846 C   0  0  0  0  0  0  0  0  0  0  0  0
   20.8159  -18.7095   21.2660 C   0  0  0  0  0  0  0  0  0  0  0  0
   21.2241  -17.2456   20.9898 C   0  0  0  0  0  0  0  0  0  0  0  0
   19.0757  -16.2700   20.6714 C   0  0  0  0  0  0  0  0  0  0  0  0
   17.9075  -16.1469   19.6649 C   0  0  0  0  0  0  0  0  0  0  0  0
   16.5665  -62.9321   56.9635 C   0  0  0  0  0  0  0  0  0  0  0  0
   20.1937  -63.2950   58.1212 N   0  0  0  0  0  0  0  0  0  0  0  0
   14.0125  -62.6824   59.7148 O   0  0  0  0  0  0  0  0  0  0  0  0
   15.3751  -62.8681   57.5614 C   0  0  0  0  0  0  0  0  0  0  0  0
   18.1502  -56.4210   53.1578 N   0  0  0  0  0  0  0  0  0  0  0  0
   21.1705  -64.7121   56.4952 O   0  0  0  0  0  0  0  0  0  0  0  0
   15.2610  -62.7661   59.0840 C   0  0  0  0  0  0  0  0  0  0  0  0
   20.0860  -57.8721   54.7058 O   0  0  0  0  0  0  0  0  0  0  0  0
   16.3461  -62.7875   59.8375 C   0  0  0  0  0  0  0  0  0  0  0  0
   17.6892  -62.8725   59.1494 C   0  0  0  0  0  0  0  0  0  0  0  0
   17.8269  -62.9319   57.8234 C   0  0  0  0  0  0  0  0  0  0  0  0
   18.8449  -62.8748   60.2292 C   0  0  0  0  0  0  0  0  0  0  0  0
   20.2262  -62.7450   59.4678 C   0  0  0  0  0  0  0  0  0  0  0  0
   19.1403  -62.9895   57.1208 C   0  0  0  0  0  0  0  0  0  0  0  0
   21.2727  -64.2942   57.6122 C   0  0  0  0  0  0  0  0  0  0  0  0
   22.4134  -64.8475   58.5283 C   0  0  0  0  0  0  0  0  0  0  0  0
   22.0003  -65.7055   59.3907 C   0  0  0  0  0  0  0  0  0  0  0  0
   22.9872  -66.3924   60.3509 C   0  0  0  0  0  0  0  0  0  0  0  0
   24.2575  -66.0800   60.2413 C   0  0  0  0  0  0  0  0  0  0  0  0
   24.7360  -65.0687   59.2227 C   0  0  0  0  0  0  0  0  0  0  0  0
   23.8983  -64.4935   58.3887 C   0  0  0  0  0  0  0  0  0  0  0  0
   21.3706  -62.5314   60.5015 C   0  0  0  0  0  0  0  0  0  0  0  0
   20.8701  -61.3591   59.7026 C   0  0  0  0  0  0  0  0  0  0  0  0
   19.4380  -61.7092   56.4422 C   0  0  0  0  0  0  0  0  0  0  0  0
   18.9727  -60.6190   57.0585 C   0  0  0  0  0  0  0  0  0  0  0  0
   19.2379  -59.2652   56.4052 C   0  0  0  0  0  0  0  0  0  0  0  0
   19.8964  -59.1959   55.2432 C   0  0  0  0  0  0  0  0  0  0  0  0
   20.4102  -60.4526   54.5205 C   0  0  0  0  0  0  0  0  0  0  0  0
   20.1883  -61.6542   55.0789 C   0  0  0  0  0  0  0  0  0  0  0  0
   20.0858  -57.9107   53.2947 C   0  0  0  0  0  0  0  0  0  0  0  0
   19.5632  -56.5498   52.7632 C   0  0  0  0  0  0  0  0  0  0  0  0
   17.9959  -55.2321   54.0209 C   0  0  0  0  0  0  0  0  0  0  0  0
   16.8769  -55.4773   55.0542 C   0  0  0  0  0  0  0  0  0  0  0  0
   41.8732  -46.3549   77.3656 C   0  0  0  0  0  0  0  0  0  0  0  0
   39.8980  -45.9275   74.1468 N   0  0  0  0  0  0  0  0  0  0  0  0
   39.9999  -46.3340   80.6080 O   0  0  0  0  0  0  0  0  0  0  0  0
   41.6006  -46.3594   78.6594 C   0  0  0  0  0  0  0  0  0  0  0  0
   45.5412  -53.2380   74.4818 N   0  0  0  0  0  0  0  0  0  0  0  0
   41.4518  -44.7312   72.7956 O   0  0  0  0  0  0  0  0  0  0  0  0
   40.1672  -46.3273   79.2002 C   0  0  0  0  0  0  0  0  0  0  0  0
   43.2317  -51.3771   73.3058 O   0  0  0  0  0  0  0  0  0  0  0  0
   39.1281  -46.2897   78.3563 C   0  0  0  0  0  0  0  0  0  0  0  0
   39.4644  -46.2826   76.8589 C   0  0  0  0  0  0  0  0  0  0  0  0
   40.7014  -46.3171   76.3936 C   0  0  0  0  0  0  0  0  0  0  0  0
   38.1550  -46.2628   75.9732 C   0  0  0  0  0  0  0  0  0  0  0  0
   38.5211  -46.3141   74.4309 C   0  0  0  0  0  0  0  0  0  0  0  0
   41.0542  -46.3500   74.9449 C   0  0  0  0  0  0  0  0  0  0  0  0
   40.2993  -45.0074   72.9461 C   0  0  0  0  0  0  0  0  0  0  0  0
   39.1999  -44.3728   72.0226 C   0  0  0  0  0  0  0  0  0  0  0  0
   39.0235  -44.6647   70.7824 C   0  0  0  0  0  0  0  0  0  0  0  0
   37.9017  -43.9251   70.0126 C   0  0  0  0  0  0  0  0  0  0  0  0
   37.1564  -43.0289   70.6308 C   0  0  0  0  0  0  0  0  0  0  0  0
   37.3831  -42.6902   72.0881 C   0  0  0  0  0  0  0  0  0  0  0  0
   38.3375  -43.3148   72.7514 C   0  0  0  0  0  0  0  0  0  0  0  0
   37.1555  -46.2879   73.6824 C   0  0  0  0  0  0  0  0  0  0  0  0
   37.9670  -47.5462   73.6372 C   0  0  0  0  0  0  0  0  0  0  0  0
   41.5695  -47.7057   74.5246 C   0  0  0  0  0  0  0  0  0  0  0  0
   40.9972  -48.8231   74.9800 C   0  0  0  0  0  0  0  0  0  0  0  0
   41.6164  -50.1587   74.5440 C   0  0  0  0  0  0  0  0  0  0  0  0
   42.6639  -50.1686   73.7035 C   0  0  0  0  0  0  0  0  0  0  0  0
   43.3474  -48.8915   73.1973 C   0  0  0  0  0  0  0  0  0  0  0  0
   42.8131  -47.7280   73.5872 C   0  0  0  0  0  0  0  0  0  0  0  0
   44.6515  -51.2770   73.3950 C   0  0  0  0  0  0  0  0  0  0  0  0
   45.3005  -52.6544   73.1670 C   0  0  0  0  0  0  0  0  0  0  0  0
   44.2538  -53.7497   74.9417 C   0  0  0  0  0  0  0  0  0  0  0  0
   44.1893  -53.8845   76.4763 C   0  0  0  0  0  0  0  0  0  0  0  0
  1  4  4  0  0  0  0
  2 13  1  0  0  0  0
  2 14  1  0  0  0  0
  2 15  1  0  0  0  0
  4  7  4  0  0  0  0
  3  7  1  0  0  0  0
  7  9  4  0  0  0  0
  9 10  4  0  0  0  0
 10 11  4  0  0  0  0
 10 12  1  0  0  0  0
  1 11  4  0  0  0  0
 11 14  1  0  0  0  0
 12 13  1  0  0  0  0
 13 22  1  0  0  0  0
 13 23  1  0  0  0  0
  6 15  2  0  0  0  0
 15 16  1  0  0  0  0
 16 17  4  0  0  0  0
 16 21  4  0  0  0  0
 17 18  4  0  0  0  0
 18 19  4  0  0  0  0
 19 20  4  0  0  0  0
 20 21  4  0  0  0  0
 22 23  1  0  0  0  0
 14 24  1  0  0  0  0
 24 25  4  0  0  0  0
 25 26  4  0  0  0  0
 26 27  4  0  0  0  0
  8 27  1  0  0  0  0
 27 28  4  0  0  0  0
 24 29  4  0  0  0  0
 28 29  4  0  0  0  0
  8 30  1  0  0  0  0
  5 31  1  0  0  0  0
 30 31  1  0  0  0  0
  5 32  1  0  0  0  0
 32 33  1  0  0  0  0
 34 37  4  0  0  0  0
 35 46  1  0  0  0  0
 35 47  1  0  0  0  0
 35 48  1  0  0  0  0
 37 40  4  0  0  0  0
 36 40  1  0  0  0  0
 40 42  4  0  0  0  0
 42 43  4  0  0  0  0
 43 44  4  0  0  0  0
 43 45  1  0  0  0  0
 34 44  4  0  0  0  0
 44 47  1  0  0  0  0
 45 46  1  0  0  0  0
 46 55  1  0  0  0  0
 46 56  1  0  0  0  0
 39 48  2  0  0  0  0
 48 49  1  0  0  0  0
 49 50  4  0  0  0  0
 49 54  4  0  0  0  0
 50 51  4  0  0  0  0
 51 52  4  0  0  0  0
 52 53  4  0  0  0  0
 53 54  4  0  0  0  0
 55 56  1  0  0  0  0
 47 57  1  0  0  0  0
 57 58  4  0  0  0  0
 58 59  4  0  0  0  0
 59 60  4  0  0  0  0
 41 60  1  0  0  0  0
 60 61  4  0  0  0  0
 57 62  4  0  0  0  0
 61 62  4  0  0  0  0
 41 63  1  0  0  0  0
 38 64  1  0  0  0  0
 63 64  1  0  0  0  0
 38 65  1  0  0  0  0
 65 66  1  0  0  0  0
 67 70  4  0  0  0  0
 68 79  1  0  0  0  0
 68 80  1  0  0  0  0
 68 81  1  0  0  0  0
 70 73  4  0  0  0  0
 69 73  1  0  0  0  0
 73 75  4  0  0  0  0
 75 76  4  0  0  0  0
 76 77  4  0  0  0  0
 76 78  1  0  0  0  0
 67 77  4  0  0  0  0
 77 80  1  0  0  0  0
 78 79  1  0  0  0  0
 79 88  1  0  0  0  0
 79 89  1  0  0  0  0
 72 81  2  0  0  0  0
 81 82  1  0  0  0  0
 82 83  4  0  0  0  0
 82 87  4  0  0  0  0
 83 84  4  0  0  0  0
 84 85  4  0  0  0  0
 85 86  4  0  0  0  0
 86 87  4  0  0  0  0
 88 89  1  0  0  0  0
 80 90  1  0  0  0  0
 90 91  4  0  0  0  0
 91 92  4  0  0  0  0
 92 93  4  0  0  0  0
 74 93  1  0  0  0  0
 93 94  4  0  0  0  0
 90 95  4  0  0  0  0
 94 95  4  0  0  0  0
 74 96  1  0  0  0  0
 71 97  1  0  0  0  0
 96 97  1  0  0  0  0
 71 98  1  0  0  0  0
 98 99  1  0  0  0  0
100103  4  0  0  0  0
101112  1  0  0  0  0
101113  1  0  0  0  0
101114  1  0  0  0  0
103106  4  0  0  0  0
102106  1  0  0  0  0
106108  4  0  0  0  0
108109  4  0  0  0  0
109110  4  0  0  0  0
109111  1  0  0  0  0
100110  4  0  0  0  0
110113  1  0  0  0  0
111112  1  0  0  0  0
112121  1  0  0  0  0
112122  1  0  0  0  0
105114  2  0  0  0  0
114115  1  0  0  0  0
115116  4  0  0  0  0
115120  4  0  0  0  0
116117  4  0  0  0  0
117118  4  0  0  0  0
118119  4  0  0  0  0
119120  4  0  0  0  0
121122  1  0  0  0  0
113123  1  0  0  0  0
123124  4  0  0  0  0
124125  4  0  0  0  0
125126  4  0  0  0  0
107126  1  0  0  0  0
126127  4  0  0  0  0
123128  4  0  0  0  0
127128  4  0  0  0  0
107129  1  0  0  0  0
104130  1  0  0  0  0
129130  1  0  0  0  0
104131  1  0  0  0  0
131132  1  0  0  0  0
133136  4  0  0  0  0
134145  1  0  0  0  0
134146  1  0  0  0  0
134147  1  0  0  0  0
136139  4  0  0  0  0
135139  1  0  0  0  0
139141  4  0  0  0  0
141142  4  0  0  0  0
142143  4  0  0  0  0
142144  1  0  0  0  0
133143  4  0  0  0  0
143146  1  0  0  0  0
144145  1  0  0  0  0
145154  1  0  0  0  0
145155  1  0  0  0  0
138147  2  0  0  0  0
147148  1  0  0  0  0
148149  4  0  0  0  0
148153  4  0  0  0  0
149150  4  0  0  0  0
150151  4  0  0  0  0
151152  4  0  0  0  0
152153  4  0  0  0  0
154155  1  0  0  0  0
146156  1  0  0  0  0
156157  4  0  0  0  0
157158  4  0  0  0  0
158159  4  0  0  0  0
140159  1  0  0  0  0
159160  4  0  0  0  0
156161  4  0  0  0  0
160161  4  0  0  0  0
140162  1  0  0  0  0
137163  1  0  0  0  0
162163  1  0  0  0  0
137164  1  0  0  0  0
164165  1  0  0  0  0
166169  4  0  0  0  0
167178  1  0  0  0  0
167179  1  0  0  0  0
167180  1  0  0  0  0
169172  4  0  0  0  0
168172  1  0  0  0  0
172174  4  0  0  0  0
174175  4  0  0  0  0
175176  4  0  0  0  0
175177  1  0  0  0  0
166176  4  0  0  0  0
176179  1  0  0  0  0
177178  1  0  0  0  0
178187  1  0  0  0  0
178188  1  0  0  0  0
171180  2  0  0  0  0
180181  1  0  0  0  0
181182  4  0  0  0  0
181186  4  0  0  0  0
182183  4  0  0  0  0
183184  4  0  0  0  0
184185  4  0  0  0  0
185186  4  0  0  0  0
187188  1  0  0  0  0
179189  1  0  0  0  0
189190  4  0  0  0  0
190191  4  0  0  0  0
191192  4  0  0  0  0
173192  1  0  0  0  0
192193  4  0  0  0  0
189194  4  0  0  0  0
193194  4  0  0  0  0
173195  1  0  0  0  0
170196  1  0  0  0  0
195196  1  0  0  0  0
170197  1  0  0  0  0
197198  1  0  0  0  0
M  END
$$$$
