8DV7
  PyMOL2.5          3D                             0

 74 84  0  0  0  0  0  0  0  0999 V2000
   28.2299   -3.2167   35.0954 C   0  0  0  0  0  0  0  0  0  0  0  0
   31.5583   -3.7882   33.5076 N   0  0  0  0  0  0  0  0  0  0  0  0
   31.8550   -6.1040   33.4316 O   0  0  0  0  0  0  0  0  0  0  0  0
   27.6382   -2.2835   35.8629 C   0  0  0  0  0  0  0  0  0  0  0  0
   22.5666   -4.4124   27.3143 N   0  0  0  0  0  0  0  0  0  0  0  0
   27.7233   -0.0433   36.9977 O   0  0  0  0  0  0  0  0  0  0  0  0
   28.3690   -1.0103   36.2771 C   0  0  0  0  0  0  0  0  0  0  0  0
   29.6250   -0.7297   35.8347 C   0  0  0  0  0  0  0  0  0  0  0  0
   30.2180   -1.7772   34.9760 C   0  0  0  0  0  0  0  0  0  0  0  0
   29.6213   -2.9424   34.6091 C   0  0  0  0  0  0  0  0  0  0  0  0
   31.7139   -1.4929   34.5070 C   0  0  0  0  0  0  0  0  0  0  0  0
   32.0156   -2.4913   33.3920 C   0  0  0  0  0  0  0  0  0  0  0  0
   30.1530   -4.0238   33.6947 C   0  0  0  0  0  0  0  0  0  0  0  0
   32.3730   -5.0246   33.3828 C   0  0  0  0  0  0  0  0  0  0  0  0
   33.9010   -4.9621   33.3635 C   0  0  0  0  0  0  0  0  0  0  0  0
   34.6409   -5.4786   32.3889 C   0  0  0  0  0  0  0  0  0  0  0  0
   36.1239   -5.3291   32.6424 C   0  0  0  0  0  0  0  0  0  0  0  0
   36.5884   -4.7882   33.7710 C   0  0  0  0  0  0  0  0  0  0  0  0
   35.7108   -4.2667   34.8734 C   0  0  0  0  0  0  0  0  0  0  0  0
   34.4087   -4.3303   34.6661 C   0  0  0  0  0  0  0  0  0  0  0  0
   31.8678   -1.7091   32.0528 C   0  0  0  0  0  0  0  0  0  0  0  0
   33.2559   -2.0476   32.5430 C   0  0  0  0  0  0  0  0  0  0  0  0
   29.3832   -4.0944   32.3951 C   0  0  0  0  0  0  0  0  0  0  0  0
   29.0621   -5.3239   31.9066 C   0  0  0  0  0  0  0  0  0  0  0  0
   28.2204   -5.4705   30.6378 C   0  0  0  0  0  0  0  0  0  0  0  0
   27.7930   -4.3355   30.0701 C   0  0  0  0  0  0  0  0  0  0  0  0
   28.1260   -2.9682   30.6397 C   0  0  0  0  0  0  0  0  0  0  0  0
   28.8504   -2.8149   31.7551 C   0  0  0  0  0  0  0  0  0  0  0  0
   26.9274   -4.4226   28.7496 C   0  0  0  0  0  0  0  0  0  0  0  0
   25.5311   -3.8630   29.1595 C   0  0  0  0  0  0  0  0  0  0  0  0
   24.6314   -3.5584   27.8684 C   0  0  0  0  0  0  0  0  0  0  0  0
   23.6272   -2.6191   28.2308 C   0  0  0  0  0  0  0  0  0  0  0  0
   22.5683   -2.9995   27.1985 C   0  0  0  0  0  0  0  0  0  0  0  0
   23.8967   -4.8189   27.5160 C   0  0  0  0  0  0  0  0  0  0  0  0
   22.1789   -4.8933   26.2288 C   0  0  0  0  0  0  0  0  0  0  0  0
   20.7579   -4.4139   25.8132 C   0  0  0  0  0  0  0  0  0  0  0  0
   20.1993   -5.3937   24.7559 C   0  0  0  0  0  0  0  0  0  0  0  0
   50.1553   10.9113    9.7173 C   0  0  0  0  0  0  0  0  0  0  0  0
   46.7692    9.3794   10.0586 N   0  0  0  0  0  0  0  0  0  0  0  0
   46.5534    8.1657    8.1515 O   0  0  0  0  0  0  0  0  0  0  0  0
   50.7531   12.0733   10.0788 C   0  0  0  0  0  0  0  0  0  0  0  0
   55.4619    3.3606   12.9727 N   0  0  0  0  0  0  0  0  0  0  0  0
   50.7564   14.2330   11.3482 O   0  0  0  0  0  0  0  0  0  0  0  0
   50.0532   13.1079   10.9781 C   0  0  0  0  0  0  0  0  0  0  0  0
   48.7603   12.9096   11.4135 C   0  0  0  0  0  0  0  0  0  0  0  0
   48.1578   11.6257   10.9600 C   0  0  0  0  0  0  0  0  0  0  0  0
   48.7385   10.6866   10.1914 C   0  0  0  0  0  0  0  0  0  0  0  0
   46.6480   11.4124   11.5071 C   0  0  0  0  0  0  0  0  0  0  0  0
   46.2555    9.9587   11.2144 C   0  0  0  0  0  0  0  0  0  0  0  0
   48.1879    9.3797    9.7360 C   0  0  0  0  0  0  0  0  0  0  0  0
   45.9825    8.6229    9.0768 C   0  0  0  0  0  0  0  0  0  0  0  0
   44.4443    8.6475    9.1166 C   0  0  0  0  0  0  0  0  0  0  0  0
   43.7011    7.5406    9.1524 C   0  0  0  0  0  0  0  0  0  0  0  0
   42.2064    7.8345    9.1155 C   0  0  0  0  0  0  0  0  0  0  0  0
   41.7549    9.0559    9.0120 C   0  0  0  0  0  0  0  0  0  0  0  0
   42.6084   10.3132    8.9472 C   0  0  0  0  0  0  0  0  0  0  0  0
   43.9313   10.0873    9.0170 C   0  0  0  0  0  0  0  0  0  0  0  0
   46.4359    9.2633   12.6117 C   0  0  0  0  0  0  0  0  0  0  0  0
   45.0410    9.3649   12.0593 C   0  0  0  0  0  0  0  0  0  0  0  0
   48.9634    8.2231   10.3878 C   0  0  0  0  0  0  0  0  0  0  0  0
   49.2194    7.1225    9.6796 C   0  0  0  0  0  0  0  0  0  0  0  0
   49.9915    5.9661   10.2678 C   0  0  0  0  0  0  0  0  0  0  0  0
   50.4058    6.0622   11.5714 C   0  0  0  0  0  0  0  0  0  0  0  0
   50.1180    7.3206   12.3950 C   0  0  0  0  0  0  0  0  0  0  0  0
   49.4244    8.3378   11.8449 C   0  0  0  0  0  0  0  0  0  0  0  0
   51.1932    4.8574   12.1798 C   0  0  0  0  0  0  0  0  0  0  0  0
   52.5977    5.4274   12.5032 C   0  0  0  0  0  0  0  0  0  0  0  0
   53.4247    4.3442   13.3608 C   0  0  0  0  0  0  0  0  0  0  0  0
   54.3462    5.1052   14.1191 C   0  0  0  0  0  0  0  0  0  0  0  0
   55.5425    4.1495   14.1563 C   0  0  0  0  0  0  0  0  0  0  0  0
   54.1783    3.4333   12.4340 C   0  0  0  0  0  0  0  0  0  0  0  0
   55.7374    2.1597   13.2217 C   0  0  0  0  0  0  0  0  0  0  0  0
   57.0813    2.0306   14.0051 C   0  0  0  0  0  0  0  0  0  0  0  0
   58.2321    2.2304   12.9998 C   0  0  0  0  0  0  0  0  0  0  0  0
  1  4  4  0  0  0  0
  2 12  1  0  0  0  0
  2 13  1  0  0  0  0
  2 14  1  0  0  0  0
  4  7  4  0  0  0  0
  6  7  1  0  0  0  0
  7  8  4  0  0  0  0
  8  9  4  0  0  0  0
  9 10  4  0  0  0  0
  9 11  1  0  0  0  0
  1 10  4  0  0  0  0
 10 13  1  0  0  0  0
 11 12  1  0  0  0  0
 12 21  1  0  0  0  0
 12 22  1  0  0  0  0
  3 14  2  0  0  0  0
 14 15  1  0  0  0  0
 15 16  4  0  0  0  0
 15 20  4  0  0  0  0
 16 17  4  0  0  0  0
 17 18  4  0  0  0  0
 18 19  4  0  0  0  0
 19 20  4  0  0  0  0
 21 22  1  0  0  0  0
 13 23  1  0  0  0  0
 23 24  4  0  0  0  0
 24 25  4  0  0  0  0
 25 26  4  0  0  0  0
 26 27  4  0  0  0  0
 26 29  1  0  0  0  0
 23 28  4  0  0  0  0
 27 28  4  0  0  0  0
 29 30  1  0  0  0  0
 30 31  1  0  0  0  0
 31 34  1  0  0  0  0
 31 32  1  0  0  0  0
 32 33  1  0  0  0  0
  5 33  1  0  0  0  0
  5 34  1  0  0  0  0
  5 35  1  0  0  0  0
 35 36  1  0  0  0  0
 36 37  1  0  0  0  0
 38 41  4  0  0  0  0
 39 49  1  0  0  0  0
 39 50  1  0  0  0  0
 39 51  1  0  0  0  0
 41 44  4  0  0  0  0
 43 44  1  0  0  0  0
 44 45  4  0  0  0  0
 45 46  4  0  0  0  0
 46 47  4  0  0  0  0
 46 48  1  0  0  0  0
 38 47  4  0  0  0  0
 47 50  1  0  0  0  0
 48 49  1  0  0  0  0
 49 58  1  0  0  0  0
 49 59  1  0  0  0  0
 40 51  2  0  0  0  0
 51 52  1  0  0  0  0
 52 53  4  0  0  0  0
 52 57  4  0  0  0  0
 53 54  4  0  0  0  0
 54 55  4  0  0  0  0
 55 56  4  0  0  0  0
 56 57  4  0  0  0  0
 58 59  1  0  0  0  0
 50 60  1  0  0  0  0
 60 61  4  0  0  0  0
 61 62  4  0  0  0  0
 62 63  4  0  0  0  0
 63 64  4  0  0  0  0
 63 66  1  0  0  0  0
 60 65  4  0  0  0  0
 64 65  4  0  0  0  0
 66 67  1  0  0  0  0
 67 68  1  0  0  0  0
 68 71  1  0  0  0  0
 68 69  1  0  0  0  0
 69 70  1  0  0  0  0
 42 70  1  0  0  0  0
 42 71  1  0  0  0  0
 42 72  1  0  0  0  0
 72 73  1  0  0  0  0
 73 74  1  0  0  0  0
M  END
$$$$
