8DV8
  PyMOL2.5          3D                             0

 74 86  0  0  0  0  0  0  0  0999 V2000
   13.7044    0.7680   -7.3122 C   0  0  0  0  0  0  0  0  0  0  0  0
   14.6992    1.5568   -3.7625 N   0  0  0  0  0  0  0  0  0  0  0  0
   10.3438    1.4125   -8.4844 O   0  0  0  0  0  0  0  0  0  0  0  0
   19.3549    4.6437   -7.5859 S   0  0  0  0  0  0  0  0  0  0  0  0
   12.6123    0.8090   -8.1170 C   0  0  0  0  0  0  0  0  0  0  0  0
   20.6332    5.8277  -11.7249 N   0  0  0  0  0  0  0  0  0  0  0  0
   16.2678    0.1623   -3.0709 O   0  0  0  0  0  0  0  0  0  0  0  0
   11.4432    1.3510   -7.6959 C   0  0  0  0  0  0  0  0  0  0  0  0
   11.4043    1.8282   -6.4036 C   0  0  0  0  0  0  0  0  0  0  0  0
   12.5458    1.7838   -5.5708 C   0  0  0  0  0  0  0  0  0  0  0  0
   13.6789    1.2867   -5.9823 C   0  0  0  0  0  0  0  0  0  0  0  0
   12.3803    2.3794   -4.1841 C   0  0  0  0  0  0  0  0  0  0  0  0
   13.6898    2.5724   -3.4736 C   0  0  0  0  0  0  0  0  0  0  0  0
   14.9450    1.2471   -5.1508 C   0  0  0  0  0  0  0  0  0  0  0  0
   15.4724    0.8962   -2.7729 C   0  0  0  0  0  0  0  0  0  0  0  0
   15.1789    1.0458   -1.2710 C   0  0  0  0  0  0  0  0  0  0  0  0
   13.7453    3.5717   -2.3126 C   0  0  0  0  0  0  0  0  0  0  0  0
   14.0951    4.0242   -3.7137 C   0  0  0  0  0  0  0  0  0  0  0  0
   16.0241    2.1166   -5.7472 C   0  0  0  0  0  0  0  0  0  0  0  0
   17.3046    1.6976   -5.6750 C   0  0  0  0  0  0  0  0  0  0  0  0
   18.3055    2.4613   -6.2209 C   0  0  0  0  0  0  0  0  0  0  0  0
   18.0277    3.6373   -6.8289 C   0  0  0  0  0  0  0  0  0  0  0  0
   16.7353    4.0746   -6.9152 C   0  0  0  0  0  0  0  0  0  0  0  0
   15.7159    3.2984   -6.3758 C   0  0  0  0  0  0  0  0  0  0  0  0
   18.6044    5.0969   -9.2277 C   0  0  0  0  0  0  0  0  0  0  0  0
   19.3312    6.2420   -9.9092 C   0  0  0  0  0  0  0  0  0  0  0  0
   13.9211    0.6478   -0.9382 C   0  0  0  0  0  0  0  0  0  0  0  0
   13.5493    0.6266    0.3774 C   0  0  0  0  0  0  0  0  0  0  0  0
   14.4445    1.0019    1.3383 C   0  0  0  0  0  0  0  0  0  0  0  0
   15.7027    1.3919    0.9981 C   0  0  0  0  0  0  0  0  0  0  0  0
   16.0931    1.3713   -0.3311 C   0  0  0  0  0  0  0  0  0  0  0  0
   20.6371    5.9017   -9.5157 C   0  0  0  0  0  0  0  0  0  0  0  0
   20.9162    5.0357  -10.4606 C   0  0  0  0  0  0  0  0  0  0  0  0
   19.6063    6.5037  -11.4717 C   0  0  0  0  0  0  0  0  0  0  0  0
   21.5844    6.4643  -11.8919 C   0  0  0  0  0  0  0  0  0  0  0  0
   22.6923    5.8051  -12.7073 C   0  0  0  0  0  0  0  0  0  0  0  0
   22.7598    6.5301  -14.0450 C   0  0  0  0  0  0  0  0  0  0  0  0
   16.9471   29.9578   14.5960 C   0  0  0  0  0  0  0  0  0  0  0  0
   18.6345   28.5067   11.5195 N   0  0  0  0  0  0  0  0  0  0  0  0
   13.4854   30.9323   14.4735 O   0  0  0  0  0  0  0  0  0  0  0  0
   19.9626   24.0119   16.4983 S   0  0  0  0  0  0  0  0  0  0  0  0
   15.7278   30.4424   14.9585 C   0  0  0  0  0  0  0  0  0  0  0  0
   19.1641   23.1280   20.8476 N   0  0  0  0  0  0  0  0  0  0  0  0
   20.7856   29.0595   11.5283 O   0  0  0  0  0  0  0  0  0  0  0  0
   14.6748   30.4365   14.0961 C   0  0  0  0  0  0  0  0  0  0  0  0
   14.8678   29.9211   12.8378 C   0  0  0  0  0  0  0  0  0  0  0  0
   16.1197   29.4025   12.4815 C   0  0  0  0  0  0  0  0  0  0  0  0
   17.1410   29.3839   13.3086 C   0  0  0  0  0  0  0  0  0  0  0  0
   16.1864   28.8620   11.0629 C   0  0  0  0  0  0  0  0  0  0  0  0
   17.4608   28.0400   10.8386 C   0  0  0  0  0  0  0  0  0  0  0  0
   18.5010   28.7890   12.9214 C   0  0  0  0  0  0  0  0  0  0  0  0
   19.9198   28.7134   10.9222 C   0  0  0  0  0  0  0  0  0  0  0  0
   20.0716   28.5721    9.4231 C   0  0  0  0  0  0  0  0  0  0  0  0
   17.4078   26.9388    9.7826 C   0  0  0  0  0  0  0  0  0  0  0  0
   17.0924   26.6151   11.2270 C   0  0  0  0  0  0  0  0  0  0  0  0
   18.8286   27.5911   13.8048 C   0  0  0  0  0  0  0  0  0  0  0  0
   17.8592   26.7471   14.2557 C   0  0  0  0  0  0  0  0  0  0  0  0
   18.2322   25.6790   15.0615 C   0  0  0  0  0  0  0  0  0  0  0  0
   19.5307   25.4479   15.4250 C   0  0  0  0  0  0  0  0  0  0  0  0
   20.4850   26.3045   14.9788 C   0  0  0  0  0  0  0  0  0  0  0  0
   20.1218   27.3560   14.1775 C   0  0  0  0  0  0  0  0  0  0  0  0
   18.6018   23.4672   17.5436 C   0  0  0  0  0  0  0  0  0  0  0  0
   18.6030   24.0091   18.9104 C   0  0  0  0  0  0  0  0  0  0  0  0
   20.9684   27.7761    8.8305 C   0  0  0  0  0  0  0  0  0  0  0  0
   21.0379   27.8303    7.4835 C   0  0  0  0  0  0  0  0  0  0  0  0
   20.2460   28.6477    6.7298 C   0  0  0  0  0  0  0  0  0  0  0  0
   19.3803   29.4812    7.3397 C   0  0  0  0  0  0  0  0  0  0  0  0
   19.2875   29.4152    8.6982 C   0  0  0  0  0  0  0  0  0  0  0  0
   17.3984   23.5388   19.5212 C   0  0  0  0  0  0  0  0  0  0  0  0
   17.8209   22.5976   20.3529 C   0  0  0  0  0  0  0  0  0  0  0  0
   19.7175   23.3736   19.8026 C   0  0  0  0  0  0  0  0  0  0  0  0
   19.7487   22.2334   21.2803 C   0  0  0  0  0  0  0  0  0  0  0  0
   19.1037   21.3919   22.3920 C   0  0  0  0  0  0  0  0  0  0  0  0
   19.9983   21.4661   23.6257 C   0  0  0  0  0  0  0  0  0  0  0  0
  1  5  4  0  0  0  0
  2 13  1  0  0  0  0
  2 14  1  0  0  0  0
  2 15  1  0  0  0  0
  5  8  4  0  0  0  0
  6 34  1  0  0  0  0
  6 35  1  0  0  0  0
  3  8  1  0  0  0  0
  8  9  4  0  0  0  0
  9 10  4  0  0  0  0
 10 11  4  0  0  0  0
 10 12  1  0  0  0  0
  1 11  4  0  0  0  0
 11 14  1  0  0  0  0
 12 13  1  0  0  0  0
 13 17  1  0  0  0  0
 13 18  1  0  0  0  0
 14 19  1  0  0  0  0
  7 15  2  0  0  0  0
 15 16  1  0  0  0  0
 17 18  1  0  0  0  0
 19 24  4  0  0  0  0
 19 20  4  0  0  0  0
 20 21  4  0  0  0  0
  4 22  1  0  0  0  0
 21 22  4  0  0  0  0
 22 23  4  0  0  0  0
 23 24  4  0  0  0  0
  4 25  1  0  0  0  0
 25 26  1  0  0  0  0
 26 32  1  0  0  0  0
 26 34  1  0  0  0  0
 16 27  4  0  0  0  0
 27 28  4  0  0  0  0
 28 29  4  0  0  0  0
 29 30  4  0  0  0  0
 16 31  4  0  0  0  0
 30 31  4  0  0  0  0
  6 33  1  0  0  0  0
 32 33  1  0  0  0  0
 34 35  1  0  0  0  0
 35 36  1  0  0  0  0
 36 37  1  0  0  0  0
 38 42  4  0  0  0  0
 39 50  1  0  0  0  0
 39 51  1  0  0  0  0
 39 52  1  0  0  0  0
 42 45  4  0  0  0  0
 43 71  1  0  0  0  0
 43 72  1  0  0  0  0
 40 45  1  0  0  0  0
 45 46  4  0  0  0  0
 46 47  4  0  0  0  0
 47 48  4  0  0  0  0
 47 49  1  0  0  0  0
 38 48  4  0  0  0  0
 48 51  1  0  0  0  0
 49 50  1  0  0  0  0
 50 54  1  0  0  0  0
 50 55  1  0  0  0  0
 51 56  1  0  0  0  0
 44 52  2  0  0  0  0
 52 53  1  0  0  0  0
 54 55  1  0  0  0  0
 56 61  4  0  0  0  0
 56 57  4  0  0  0  0
 57 58  4  0  0  0  0
 41 59  1  0  0  0  0
 58 59  4  0  0  0  0
 59 60  4  0  0  0  0
 60 61  4  0  0  0  0
 41 62  1  0  0  0  0
 62 63  1  0  0  0  0
 63 69  1  0  0  0  0
 63 71  1  0  0  0  0
 53 64  4  0  0  0  0
 64 65  4  0  0  0  0
 65 66  4  0  0  0  0
 66 67  4  0  0  0  0
 53 68  4  0  0  0  0
 67 68  4  0  0  0  0
 43 70  1  0  0  0  0
 69 70  1  0  0  0  0
 71 72  1  0  0  0  0
 72 73  1  0  0  0  0
 73 74  1  0  0  0  0
M  END
$$$$
